@<TRIPOS>MOLECULE
5EOB_ligand
40   44    1
SMALL
USER_CHARGES


@<TRIPOS>ATOM
      1 C13        18.0205   11.6244  138.4194 C.3       1 5QQ         0.3643 
      2 C17        20.0310   11.1543  137.0092 C.ar      1 5QQ        -0.0738 
      3 C21        23.5224    8.2991  138.5166 C.ar      1 5QQ         0.5182 
      4 C22        22.9038    8.0889  139.7791 C.ar      1 5QQ        -0.5085 
      5 C24        21.1218    9.5573  139.0635 C.ar      1 5QQ        -0.2756 
      6 C28        12.9550   12.4924  138.8780 C.ar      1 5QQ         0.0412 
      7 F01         9.3336   12.5981  138.4620 F         1 5QQ        -0.1889 
      8 C02        10.6291   13.0156  138.6007 C.ar      1 5QQ         0.3296 
      9 C03        10.9103   14.3793  138.6052 C.ar      1 5QQ        -0.1898 
     10 C04        12.2280   14.8088  138.7513 C.ar      1 5QQ        -0.1699 
     11 C05        13.2671   13.8688  138.8939 C.ar      1 5QQ        -0.0737 
     12 C06        14.6762   14.2749  139.0344 C.ar      1 5QQ         0.2039 
     13 C07        15.0554   15.6259  139.4358 C.ar      1 5QQ         0.3307 
     14 N08        16.3055   16.0119  139.5954 N.2       1 5QQ        -0.6837 
     15 C09        17.2691   15.0678  139.3676 C.ar      1 5QQ         0.8439 
     16 N10        18.6013   15.1457  139.4482 N.2       1 5QQ        -0.5648 
     17 N11        19.0931   13.8224  139.0973 N.2       1 5QQ        -0.3427 
     18 C12        18.0418   13.0555  138.8356 C.ar      1 5QQ         0.1949 
     19 F14        17.3154   11.5605  137.2024 F         1 5QQ        -0.1985 
     20 F15        17.2728   10.9160  139.3722 F         1 5QQ        -0.1802 
     21 C16        19.3644   10.9980  138.2498 C.ar      1 5QQ        -0.0517 
     22 C18        21.2383   10.5283  136.8011 C.ar      1 5QQ        -0.4338 
     23 C19        21.8136    9.7123  137.8157 C.ar      1 5QQ         0.7668 
     24 N20        23.0130    9.0789  137.5606 N.ar      1 5QQ        -0.8299 
     25 C23        21.7084    8.7172  140.0515 C.ar      1 5QQ         0.1750 
     26 C25        19.8803   10.2162  139.2560 C.ar      1 5QQ        -0.1255 
     27 N26        16.8869   13.7744  138.9890 N.pl3     1 5QQ         0.1600 
     28 N27        15.5866   13.3364  138.8025 N.2       1 5QQ        -0.3705 
     29 C29        11.6410   12.0653  138.7355 C.ar      1 5QQ        -0.2902 
     30 HC17       19.5680   11.7540  136.2348 H         1 5QQ         0.1727 
     31 HC21       24.4642    7.8038  138.2997 H         1 5QQ         0.0343 
     32 HC22       23.3792    7.4390  140.5041 H         1 5QQ         0.2055 
     33 HC28       13.7495   11.7690  138.9869 H         1 5QQ         0.0986 
     34 HC03       10.1018   15.0896  138.4884 H         1 5QQ         0.1644 
     35 HC04       12.4321   15.8720  138.7280 H         1 5QQ         0.1733 
     36 HC07       14.2819   16.3555  139.6364 H         1 5QQ         0.1105 
     37 HC18       21.7736   10.6188  135.8628 H         1 5QQ         0.2003 
     38 HC23       21.2061    8.5804  141.0031 H         1 5QQ         0.1136 
     39 HC25       19.3309   10.0836  140.1819 H         1 5QQ         0.1612 
     40 HC29       11.3903   11.0120  138.7310 H         1 5QQ         0.1888 
@<TRIPOS>BOND
     1    1   18 1    
     2    1   19 1    
     3    1   20 1    
     4    1   21 1    
     5    2   21 ar   
     6    2   22 ar   
     7    2   30 1    
     8    3    4 ar   
     9    3   24 ar   
    10    3   31 1    
    11    4   25 ar   
    12    4   32 1    
    13    5   23 ar   
    14    5   25 ar   
    15    5   26 ar   
    16    6   11 ar   
    17    6   29 ar   
    18    6   33 1    
    19    7    8 1    
    20    8    9 ar   
    21    8   29 ar   
    22    9   10 ar   
    23    9   34 1    
    24   10   11 ar   
    25   10   35 1    
    26   11   12 1    
    27   12   13 ar   
    28   12   28 ar   
    29   13   14 ar   
    30   13   36 1    
    31   14   15 ar   
    32   15   16 ar   
    33   15   27 ar   
    34   16   17 ar   
    35   17   18 ar   
    36   18   27 ar   
    37   21   26 ar   
    38   22   23 ar   
    39   22   37 1    
    40   23   24 ar   
    41   25   38 1    
    42   26   39 1    
    43   27   28 ar   
    44   29   40 1    
@<TRIPOS>SUBSTRUCTURE
     1 5QQ         1 GROUP             0       ****    0 ROOT    
@<TRIPOS>MOLECULE
4DEI_ligand
55   59    1
SMALL
USER_CHARGES


@<TRIPOS>ATOM
      1 CBF        12.0451   12.3245  143.1277 C.3       1 0JL        -0.4954 
      2 CBE        12.9404   12.1450  141.9292 C.2       1 0JL         0.5686 
      3 CBB        13.6013   13.2313  141.2730 C.2       1 0JL        -0.4181 
      4 NBD        13.1816   10.9342  141.4208 N.2       1 0JL        -0.6143 
      5 S          14.2454   11.0334  140.1034 S.3       1 0JL         0.1862 
      6 CBA        14.3774   12.7817  140.2292 C.2       1 0JL         0.0994 
      7 NAZ        15.2003   13.5480  139.3713 N.pl3     1 0JL        -0.0919 
      8 CAT        15.9594   12.8332  138.4081 C.ar      1 0JL         0.6171 
      9 CAS        16.8570   13.6667  137.6826 C.ar      1 0JL        -0.4958 
     10 OBG        15.8208   11.5868  138.2703 O.2       1 0JL        -0.5667 
     11 CAY        15.2660   14.9543  139.5040 C.ar      1 0JL         0.0693 
     12 CAX        16.0991   15.7238  138.7581 C.ar      1 0JL        -0.5821 
     13 CAW        16.9437   15.0538  137.8221 C.ar      1 0JL         0.7471 
     14 NAV        17.9166   15.5248  136.9635 N.2       1 0JL        -0.5322 
     15 NAU        18.4486   14.4489  136.2981 N.2       1 0JL        -0.2340 
     16 NAR        17.7752   13.3121  136.7488 N.pl3     1 0JL         0.5605 
     17 CAP        18.1735   11.9145  136.3724 C.3       1 0JL        -0.2980 
     18 CAQ        18.9595   11.9251  135.0543 C.3       1 0JL        -0.3046 
     19 CAO        18.9620   11.3417  137.5492 C.ar      1 0JL         0.0548 
     20 CAI        18.4829   10.2419  138.2321 C.ar      1 0JL        -0.0508 
     21 CAH        19.1753    9.7384  139.3664 C.ar      1 0JL        -0.3047 
     22 CAG        18.6877    8.6360  140.1222 C.ar      1 0JL        -0.0670 
     23 CAN        20.1586   11.9848  137.9783 C.ar      1 0JL        -0.0247 
     24 CAM        20.8554   11.5070  139.0676 C.ar      1 0JL        -0.4837 
     25 CAL        20.3832   10.3780  139.7894 C.ar      1 0JL         0.7052 
     26 NAK        21.0835    9.9332  140.8983 N.ar      1 0JL        -0.7460 
     27 CAJ        20.5983    8.9042  141.5780 C.ar      1 0JL         0.3001 
     28 CAF        19.3891    8.2180  141.2346 C.ar      1 0JL         0.1169 
     29 OAE        19.0428    7.1856  142.0795 O.3       1 0JL        -0.4013 
     30 CAD        17.7900    6.4427  141.8032 C.3       1 0JL         0.1599 
     31 CAC        17.6510    5.4330  142.9292 C.3       1 0JL         0.0350 
     32 OAB        18.7080    4.4347  142.7520 O.3       1 0JL        -0.4039 
     33 CAA        18.6498    3.4141  143.8069 C.3       1 0JL        -0.0635 
     34 HBF1       12.6502   12.4958  144.0286 H         1 0JL         0.1589 
     35 HBF2       11.3805   13.1848  142.9911 H         1 0JL         0.1531 
     36 HBF3       11.4468   11.4223  143.2811 H         1 0JL         0.1317 
     37 HCBB       13.4947   14.2590  141.5868 H         1 0JL         0.2012 
     38 HCAY       14.6050   15.3859  140.2404 H         1 0JL         0.1969 
     39 HCAX       16.1214   16.7971  138.8845 H         1 0JL         0.2635 
     40 HCAP       17.2321   11.3712  136.2613 H         1 0JL         0.2126 
     41 HAQ1       19.1868   10.8903  134.7798 H         1 0JL         0.1565 
     42 HAQ2       18.3625   12.3857  134.2614 H         1 0JL         0.1157 
     43 HAQ3       19.8935   12.4800  135.1660 H         1 0JL         0.0696 
     44 HCAI       17.5515    9.7765  137.9363 H         1 0JL         0.1580 
     45 HCAG       17.7696    8.1526  139.8107 H         1 0JL         0.1257 
     46 HCAN       20.5026   12.8717  137.4566 H         1 0JL         0.1602 
     47 HCAM       21.7646   11.9861  139.4133 H         1 0JL         0.1973 
     48 HCAJ       21.1384    8.5523  142.4518 H         1 0JL         0.0761 
     49 HAD1       17.8645    5.9278  140.8392 H         1 0JL         0.0765 
     50 HAD2       16.9359    7.1298  141.7978 H         1 0JL         0.0685 
     51 HAC1       16.6541    4.9730  142.8765 H         1 0JL         0.0756 
     52 HAC2       17.7488    5.9476  143.8950 H         1 0JL         0.0929 
     53 HAA1       19.4683    2.7180  143.6083 H         1 0JL         0.1023 
     54 HAA2       18.7809    3.8562  144.8044 H         1 0JL         0.0817 
     55 HAA3       17.6946    2.8698  143.7903 H         1 0JL         0.0841 
@<TRIPOS>BOND
     1    1    2 1    
     2    1   34 1    
     3    1   35 1    
     4    1   36 1    
     5    2    3 1    
     6    2    4 2    
     7    3    6 2    
     8    3   37 1    
     9    4    5 1    
    10    5    6 1    
    11    6    7 1    
    12    7    8 ar   
    13    7   11 ar   
    14    8    9 ar   
    15    8   10 2    
    16    9   13 ar   
    17    9   16 ar   
    18   11   12 ar   
    19   11   38 1    
    20   12   13 ar   
    21   12   39 1    
    22   13   14 ar   
    23   14   15 ar   
    24   15   16 ar   
    25   16   17 1    
    26   17   18 1    
    27   17   19 1    
    28   17   40 1    
    29   18   41 1    
    30   18   42 1    
    31   18   43 1    
    32   19   20 ar   
    33   19   23 ar   
    34   20   21 ar   
    35   20   44 1    
    36   21   22 ar   
    37   21   25 ar   
    38   22   28 ar   
    39   22   45 1    
    40   23   24 ar   
    41   23   46 1    
    42   24   25 ar   
    43   24   47 1    
    44   25   26 ar   
    45   26   27 ar   
    46   27   28 ar   
    47   27   48 1    
    48   28   29 1    
    49   29   30 1    
    50   30   31 1    
    51   30   49 1    
    52   30   50 1    
    53   31   32 1    
    54   31   51 1    
    55   31   52 1    
    56   32   33 1    
    57   33   53 1    
    58   33   54 1    
    59   33   55 1    
@<TRIPOS>SUBSTRUCTURE
     1 0JL         1 GROUP             0       ****    0 ROOT    
@<TRIPOS>MOLECULE
4XYF_ligand
55   59    1
SMALL
USER_CHARGES


@<TRIPOS>ATOM
      1 C21         9.2746   15.9573  137.5568 C.3       1 44X        -0.5257 
      2 C19        10.5513   15.2234  137.8451 C.2       1 44X         0.7042 
      3 C20        11.7694   15.7946  138.3328 C.2       1 44X        -0.6631 
      4 N5         10.6395   13.9108  137.6467 N.2       1 44X        -0.5454 
      5 O1         12.0493   13.5746  138.0359 O.3       1 44X        -0.1534 
      6 C18        12.6528   14.7554  138.4310 C.2       1 44X         0.5027 
      7 C15        14.0477   14.7213  138.8368 C.ar      1 44X        -0.1985 
      8 C16        14.6631   15.9406  139.2959 C.ar      1 44X        -0.0605 
      9 C17        15.9691   15.9459  139.6534 C.ar      1 44X         0.0051 
     10 F1         16.5952   17.0682  140.0974 F         1 44X        -0.1244 
     11 C14        14.7713   13.5551  138.7670 C.ar      1 44X        -0.0709 
     12 N2         16.1111   13.5812  139.1221 N.pl3     1 44X        -0.0745 
     13 C13        16.7405   14.7593  139.5707 C.ar      1 44X         0.5943 
     14 N3         18.0226   14.5500  139.8546 N.2       1 44X        -0.5774 
     15 N4         18.2547   13.1490  139.5729 N.2       1 44X        -0.3582 
     16 C11        17.1243   12.6026  139.1419 C.ar      1 44X         0.3514 
     17 C10        16.9483   11.1663  138.7134 C.3       1 44X         0.0255 
     18 C12        16.5660   11.0839  137.2021 C.3       1 44X        -0.1023 
     19 C7         18.2310   10.3638  138.9553 C.ar      1 44X        -0.0628 
     20 C6         18.2283    9.2498  139.7695 C.ar      1 44X        -0.1449 
     21 C4         19.4092    8.4619  139.9382 C.ar      1 44X        -0.0877 
     22 C3         19.4620    7.3223  140.7760 C.ar      1 44X        -0.1999 
     23 C8         19.4332   10.7285  138.2672 C.ar      1 44X        -0.1998 
     24 C9         20.5804    9.9850  138.4059 C.ar      1 44X        -0.3376 
     25 C5         20.6055    8.8344  139.2411 C.ar      1 44X         0.6116 
     26 N1         21.7697    8.1129  139.3659 N.ar      1 44X        -0.7569 
     27 C1         21.7844    7.0465  140.1651 C.ar      1 44X         0.3089 
     28 C2         20.6467    6.6102  140.9026 C.ar      1 44X         0.1182 
     29 O2         20.6452    5.5128  141.7415 O.3       1 44X        -0.3624 
     30 C22        21.9057    4.7567  141.9412 C.3       1 44X         0.1164 
     31 C23        21.5877    3.6794  142.9634 C.3       1 44X         0.0732 
     32 O3         21.4171    4.3433  144.2586 O.3       1 44X        -0.4093 
     33 C24        21.1383    3.3645  145.3181 C.3       1 44X        -0.0724 
     34 H211        8.4910   15.2569  137.2538 H         1 44X         0.1598 
     35 H212        8.9482   16.4989  138.4524 H         1 44X         0.1667 
     36 H213        9.4380   16.6841  136.7512 H         1 44X         0.1696 
     37 HC20       11.9344   16.8340  138.5617 H         1 44X         0.2737 
     38 HC16       14.0915   16.8570  139.3652 H         1 44X         0.1829 
     39 HC14       14.3462   12.6155  138.4476 H         1 44X         0.1577 
     40 HC10       16.1355   10.7287  139.3091 H         1 44X         0.0842 
     41 H121       16.4244   10.0347  136.9278 H         1 44X         0.0752 
     42 H122       15.6384   11.6235  136.9903 H         1 44X         0.0271 
     43 H123       17.3643   11.5096  136.5890 H         1 44X         0.0464 
     44 HC6        17.3269    8.9582  140.3007 H         1 44X         0.1438 
     45 HC3        18.5877    6.9974  141.3289 H         1 44X         0.1814 
     46 HC8        19.4383   11.6148  137.6449 H         1 44X         0.2112 
     47 HC9        21.4953   10.2550  137.8902 H         1 44X         0.1669 
     48 HC1        22.7197    6.5039  140.2382 H         1 44X         0.0647 
     49 H221       22.6878    5.4161  142.3326 H         1 44X         0.0697 
     50 H222       22.2315    4.3018  140.9991 H         1 44X         0.0684 
     51 H231       22.4188    2.9599  142.9934 H         1 44X         0.0751 
     52 H232       20.6734    3.1480  142.6634 H         1 44X         0.0797 
     53 H241       21.0477    3.9319  146.2479 H         1 44X         0.1065 
     54 H242       20.2022    2.8194  145.1284 H         1 44X         0.0824 
     55 H243       21.9547    2.6339  145.4157 H         1 44X         0.0838 
@<TRIPOS>BOND
     1    1    2 1    
     2    1   34 1    
     3    1   35 1    
     4    1   36 1    
     5    2    3 1    
     6    2    4 2    
     7    3    6 2    
     8    3   37 1    
     9    4    5 1    
    10    5    6 1    
    11    6    7 1    
    12    7    8 ar   
    13    7   11 ar   
    14    8    9 ar   
    15    8   38 1    
    16    9   10 1    
    17    9   13 ar   
    18   11   12 ar   
    19   11   39 1    
    20   12   13 ar   
    21   12   16 ar   
    22   13   14 ar   
    23   14   15 ar   
    24   15   16 ar   
    25   16   17 1    
    26   17   18 1    
    27   17   19 1    
    28   17   40 1    
    29   18   41 1    
    30   18   42 1    
    31   18   43 1    
    32   19   20 ar   
    33   19   23 ar   
    34   20   21 ar   
    35   20   44 1    
    36   21   22 ar   
    37   21   25 ar   
    38   22   28 ar   
    39   22   45 1    
    40   23   24 ar   
    41   23   46 1    
    42   24   25 ar   
    43   24   47 1    
    44   25   26 ar   
    45   26   27 ar   
    46   27   28 ar   
    47   27   48 1    
    48   28   29 1    
    49   29   30 1    
    50   30   31 1    
    51   30   49 1    
    52   30   50 1    
    53   31   32 1    
    54   31   51 1    
    55   31   52 1    
    56   32   33 1    
    57   33   53 1    
    58   33   54 1    
    59   33   55 1    
@<TRIPOS>SUBSTRUCTURE
     1 44X         1 GROUP             0       ****    0 ROOT    
@<TRIPOS>MOLECULE
6SDE_ligand
41   45    1
SMALL
USER_CHARGES


@<TRIPOS>ATOM
      1 C1         18.4176   12.1863  137.2276 C.3       1 V0L         0.3261 
      2 C8         19.6101   11.5748  137.9537 C.ar      1 V0L        -0.2942 
      3 C9         20.8316   12.3111  138.1082 C.ar      1 V0L         0.1840 
      4 C10        21.9427   11.7292  138.6679 C.ar      1 V0L        -0.5333 
      5 C11        21.8894   10.3823  139.0925 C.ar      1 V0L         0.6095 
      6 N1         20.6622    9.6786  138.9278 N.pl3     1 V0L         0.2430 
      7 C13        19.5439   10.2705  138.3702 C.ar      1 V0L        -0.1617 
      8 C14        20.8667    8.3848  139.4180 C.ar      1 V0L        -0.5729 
      9 C15        22.1781    8.3534  139.8502 C.ar      1 V0L         0.2902 
     10 N2         22.8180    9.5812  139.6544 N.2       1 V0L        -0.8000 
     11 C17        18.6789   12.2922  135.7108 C.3       1 V0L        -0.2467 
     12 N3         18.0817   13.5369  137.7589 N.pl3     1 V0L        -0.0038 
     13 C19        16.9549   13.9300  138.4043 C.ar      1 V0L         0.2331 
     14 C20        17.0898   15.3176  138.6185 C.ar      1 V0L         0.7486 
     15 N5         18.2951   15.7509  138.0922 N.2       1 V0L        -0.5473 
     16 N4         18.9142   14.6798  137.5486 N.2       1 V0L        -0.1066 
     17 N23        16.1254   16.0367  139.2408 N.ar      1 V0L        -0.6820 
     18 N24        15.8870   13.2055  138.7711 N.ar      1 V0L        -0.5372 
     19 C25        14.9088   13.9183  139.3857 C.ar      1 V0L         0.2860 
     20 C26        15.0518   15.3336  139.6173 C.ar      1 V0L         0.2111 
     21 C27        13.7195   13.2048  139.7861 C.ar      1 V0L        -0.2181 
     22 C28        13.4979   11.8090  139.6034 C.ar      1 V0L         0.3128 
     23 N8         12.2976   11.4193  140.0610 N.2       1 V0L        -0.6530 
     24 N9         11.7234   12.6179  140.5609 N.pl3     1 V0L         0.5121 
     25 C31        12.5517   13.6772  140.4021 C.ar      1 V0L        -0.2974 
     26 C32        10.3550   12.5864  141.1088 C.3       1 V0L        -0.4729 
     27 HC1        17.5180   11.5902  137.4137 H         1 V0L         0.0413 
     28 HC9        20.8554   13.3439  137.7867 H         1 V0L         0.0556 
     29 HC10       22.8726   12.2692  138.7975 H         1 V0L         0.2401 
     30 HC13       18.6583    9.6525  138.2799 H         1 V0L         0.2233 
     31 HC14       20.0887    7.6405  139.4095 H         1 V0L         0.2771 
     32 HC15       22.6960    7.5167  140.2897 H         1 V0L         0.1020 
     33 H171       17.8042   12.7154  135.2082 H         1 V0L         0.0836 
     34 H172       19.5466   12.9321  135.5304 H         1 V0L         0.0551 
     35 H173       18.8762   11.2927  135.3134 H         1 V0L         0.1024 
     36 HC26       14.2581   15.8735  140.1189 H         1 V0L         0.1268 
     37 HC28       14.1822   11.1052  139.1591 H         1 V0L         0.0858 
     38 HC31       12.2728   14.6684  140.7237 H         1 V0L         0.2261 
     39 H321       10.1750   13.5173  141.6520 H         1 V0L         0.1853 
     40 H322        9.6361   12.4828  140.2906 H         1 V0L         0.1867 
     41 H323       10.2757   11.7356  141.7890 H         1 V0L         0.1793 
@<TRIPOS>BOND
     1    1    2 1    
     2    1   11 1    
     3    1   12 1    
     4    1   27 1    
     5    2    3 ar   
     6    2    7 ar   
     7    3    4 ar   
     8    3   28 1    
     9    4    5 ar   
    10    4   29 1    
    11    5    6 ar   
    12    5   10 ar   
    13    6    7 ar   
    14    6    8 ar   
    15    7   30 1    
    16    8    9 ar   
    17    8   31 1    
    18    9   10 ar   
    19    9   32 1    
    20   11   33 1    
    21   11   34 1    
    22   11   35 1    
    23   12   13 ar   
    24   12   16 ar   
    25   13   14 ar   
    26   13   18 ar   
    27   14   15 ar   
    28   14   17 ar   
    29   15   16 ar   
    30   17   20 ar   
    31   18   19 ar   
    32   19   20 ar   
    33   19   21 1    
    34   20   36 1    
    35   21   22 ar   
    36   21   25 ar   
    37   22   23 ar   
    38   22   37 1    
    39   23   24 ar   
    40   24   25 ar   
    41   24   26 1    
    42   25   38 1    
    43   26   39 1    
    44   26   40 1    
    45   26   41 1    
@<TRIPOS>SUBSTRUCTURE
     1 V0L         1 GROUP             0       ****    0 ROOT    
@<TRIPOS>MOLECULE
3A4P_ligand
45   47    1
SMALL
USER_CHARGES


@<TRIPOS>ATOM
      1 C1         17.6938    5.6389  146.7069 C.3       1 DFQ        -0.2503 
      2 N2         18.5554    6.4606  145.8412 N.am      1 DFQ        -0.4359 
      3 C4         18.0844    6.9021  144.6469 C.2       1 DFQ         0.7196 
      4 O5         16.9205    6.6198  144.2466 O.2       1 DFQ        -0.6392 
      5 C6         19.0421    7.7388  143.8639 C.2       1 DFQ        -0.5814 
      6 C7         18.6434    8.2424  142.6858 C.2       1 DFQ         0.1700 
      7 C8         19.4067    9.0907  141.7674 C.ar      1 DFQ        -0.3062 
      8 C9         18.7839    9.6008  140.6365 C.ar      1 DFQ         0.0734 
      9 C10        19.4949   10.4331  139.7358 C.ar      1 DFQ        -0.1883 
     10 C11        18.8842   10.9804  138.5789 C.ar      1 DFQ        -0.2986 
     11 C12        20.7854    9.4349  141.9700 C.ar      1 DFQ         0.5038 
     12 N13        21.4906   10.2061  141.1485 N.ar      1 DFQ        -0.8264 
     13 C14        20.8666   10.7181  140.0270 C.ar      1 DFQ         0.6459 
     14 C15        21.5889   11.5542  139.1314 C.ar      1 DFQ        -0.3185 
     15 C16        20.9778   12.0790  138.0159 C.ar      1 DFQ        -0.2631 
     16 C17        19.6109   11.7910  137.7314 C.ar      1 DFQ         0.3864 
     17 O18        19.1141   12.3782  136.5727 O.3       1 DFQ        -0.4605 
     18 C19        17.6514   12.3652  136.3617 C.3       1 DFQ         0.3478 
     19 C20        17.4179   12.9448  134.9612 C.3       1 DFQ        -0.3731 
     20 C21        16.9193   13.1587  137.4469 C.ar      1 DFQ         0.3624 
     21 C22        17.3372   14.4375  137.8507 C.ar      1 DFQ        -0.3274 
     22 CL23       18.7452   15.2346  137.1732 Cl        1 DFQ        -0.0253 
     23 C24        16.6402   15.1515  138.8275 C.ar      1 DFQ         0.4636 
     24 F25        17.0786   16.3911  139.1922 F         1 DFQ        -0.2048 
     25 C26        15.5098   14.6194  139.4304 C.ar      1 DFQ        -0.3787 
     26 C27        15.0679   13.3549  139.0534 C.ar      1 DFQ         0.0836 
     27 C28        15.7694   12.6469  138.0760 C.ar      1 DFQ        -0.2712 
     28 CL29       15.1561   11.0380  137.6609 Cl        1 DFQ        -0.0541 
     29 H1_1       18.2733    5.3155  147.5735 H         1 DFQ         0.1484 
     30 H1_2       16.8213    6.2127  147.0429 H         1 DFQ         0.1190 
     31 H1_3       17.3297    4.7645  146.1558 H         1 DFQ         0.1174 
     32 HN2        19.4974    6.6947  146.1568 H         1 DFQ         0.3695 
     33 HC6        20.0259    7.9169  144.2871 H         1 DFQ         0.2154 
     34 HC7        17.6259    7.9964  142.3808 H         1 DFQ         0.0731 
     35 HC9        17.7417    9.3689  140.4358 H         1 DFQ         0.1141 
     36 HC11       17.8458   10.7472  138.3925 H         1 DFQ         0.1500 
     37 HC12       21.3083    9.0485  142.8392 H         1 DFQ         0.0378 
     38 HC15       22.6260   11.7730  139.3579 H         1 DFQ         0.1856 
     39 HC16       21.5084   12.7286  137.3304 H         1 DFQ         0.2054 
     40 HC19       17.3032   11.3300  136.3790 H         1 DFQ         0.0254 
     41 H201       16.3511   12.8880  134.7241 H         1 DFQ         0.0898 
     42 H202       17.7466   13.9843  134.9159 H         1 DFQ         0.1082 
     43 H203       17.9808   12.3535  134.2321 H         1 DFQ         0.1338 
     44 HC26       14.9911   15.1957  140.1859 H         1 DFQ         0.2238 
     45 HC27       14.1912   12.9186  139.5148 H         1 DFQ         0.1300 
@<TRIPOS>BOND
     1    1    2 1    
     2    1   29 1    
     3    1   30 1    
     4    1   31 1    
     5    2    3 am   BACKBONE|DICT|INTERRES
     6    2   32 1    
     7    3    4 2    
     8    3    5 1    
     9    5    6 2    
    10    5   33 1    
    11    6    7 1    
    12    6   34 1    
    13    7    8 ar   
    14    7   11 ar   
    15    8    9 ar   
    16    8   35 1    
    17    9   10 ar   
    18    9   13 ar   
    19   10   16 ar   
    20   10   36 1    
    21   11   12 ar   
    22   11   37 1    
    23   12   13 ar   
    24   13   14 ar   
    25   14   15 ar   
    26   14   38 1    
    27   15   16 ar   
    28   15   39 1    
    29   16   17 1    
    30   17   18 1    
    31   18   19 1    
    32   18   20 1    
    33   18   40 1    
    34   19   41 1    
    35   19   42 1    
    36   19   43 1    
    37   20   21 ar   
    38   20   27 ar   
    39   21   22 1    
    40   21   23 ar   
    41   23   24 1    
    42   23   25 ar   
    43   25   26 ar   
    44   25   44 1    
    45   26   27 ar   
    46   26   45 1    
    47   27   28 1    
@<TRIPOS>SUBSTRUCTURE
     1 DFQ         1 GROUP             0       ****    0 ROOT    
@<TRIPOS>MOLECULE
5YA5_ligand
41   45    1
SMALL
USER_CHARGES


@<TRIPOS>ATOM
      1 CAA        21.2653    8.2324  141.0833 C.3       1 6TD         0.0161 
      2 OAP        21.7749    9.0762  139.9857 O.3       1 6TD        -0.4166 
      3 CAS        20.8580    9.8324  139.2659 C.ar      1 6TD         0.3998 
      4 CAG        21.3945   10.6246  138.2351 C.ar      1 6TD        -0.3494 
      5 CAE        20.5630   11.4198  137.4512 C.ar      1 6TD        -0.1153 
      6 CAF        19.4743    9.8531  139.4956 C.ar      1 6TD        -0.2354 
      7 CAD        18.6461   10.6553  138.7013 C.ar      1 6TD        -0.2635 
      8 CAR        19.1760   11.4414  137.6716 C.ar      1 6TD         0.2061 
      9 CAK        18.2684   12.3368  136.8250 C.3       1 6TD        -0.5454 
     10 CAU        17.9174   13.5877  137.5714 C.ar      1 6TD         0.5179 
     11 NAL        18.5953   14.7330  137.5915 N.2       1 6TD        -0.5073 
     12 NAM        17.8802   15.6682  138.5036 N.2       1 6TD        -0.4637 
     13 CAY        16.8404   14.9828  138.9375 C.ar      1 6TD         0.3905 
     14 SAQ        15.4476   15.2020  139.9616 S.3       1 6TD        -0.0099 
     15 NAZ        16.8202   13.6979  138.4014 N.pl3     1 6TD         0.1279 
     16 NAN        15.7433   12.8502  138.7328 N.2       1 6TD        -0.4242 
     17 CAV        14.9479   13.5313  139.5375 C.2       1 6TD         0.1453 
     18 CAT        13.7235   12.9835  140.0441 C.ar      1 6TD         0.2901 
     19 CAJ        13.2504   11.7039  139.7841 C.ar      1 6TD        -0.3684 
     20 CAW        11.9909   11.5757  140.4431 C.ar      1 6TD         0.0886 
     21 CAH        11.0494   10.5295  140.5325 C.ar      1 6TD        -0.2049 
     22 CAB         9.8888   10.7418  141.2641 C.ar      1 6TD        -0.1913 
     23 CAC         9.6478   11.9829  141.9128 C.ar      1 6TD        -0.0739 
     24 CAI        10.5592   13.0316  141.8432 C.ar      1 6TD        -0.3359 
     25 CAX        11.7333   12.8244  141.1048 C.ar      1 6TD         0.3513 
     26 NAO        12.8020   13.6658  140.8513 N.pl3     1 6TD        -0.6308 
     27 HAA1       22.1499    7.7481  141.5012 H         1 6TD         0.1023 
     28 HAA2       20.7730    8.8391  141.8532 H         1 6TD         0.0678 
     29 HAA3       20.5655    7.4751  140.7095 H         1 6TD         0.0697 
     30 HCAG       22.4655   10.5977  138.0714 H         1 6TD         0.1786 
     31 HCAE       20.9928   12.0282  136.6621 H         1 6TD         0.1353 
     32 HCAF       19.0334    9.2539  140.2817 H         1 6TD         0.1606 
     33 HCAD       17.5771   10.6778  138.8914 H         1 6TD         0.1760 
     34 HAK1       17.3415   11.8120  136.5664 H         1 6TD         0.1968 
     35 HAK2       18.7814   12.6250  135.9019 H         1 6TD         0.1964 
     36 HCAJ       13.7574   10.9633  139.1860 H         1 6TD         0.2079 
     37 HCAH       11.2355    9.5832  140.0352 H         1 6TD         0.1684 
     38 HCAB        9.1493    9.9530  141.3452 H         1 6TD         0.1425 
     39 HCAC        8.7289   12.1131  142.4740 H         1 6TD         0.1336 
     40 HCAI       10.3698   13.9770  142.3381 H         1 6TD         0.1830 
     41 HNAO       12.8722   14.6257  141.1977 H         1 6TD         0.4836 
@<TRIPOS>BOND
     1    1    2 1    
     2    1   27 1    
     3    1   28 1    
     4    1   29 1    
     5    2    3 1    
     6    3    4 ar   
     7    3    6 ar   
     8    4    5 ar   
     9    4   30 1    
    10    5    8 ar   
    11    5   31 1    
    12    6    7 ar   
    13    6   32 1    
    14    7    8 ar   
    15    7   33 1    
    16    8    9 1    
    17    9   10 1    
    18    9   34 1    
    19    9   35 1    
    20   10   11 ar   
    21   10   15 ar   
    22   11   12 ar   
    23   12   13 ar   
    24   13   14 1    
    25   13   15 ar   
    26   14   17 1    
    27   15   16 1    
    28   16   17 2    
    29   17   18 1    
    30   18   19 ar   
    31   18   26 ar   
    32   19   20 ar   
    33   19   36 1    
    34   20   21 ar   
    35   20   25 ar   
    36   21   22 ar   
    37   21   37 1    
    38   22   23 ar   
    39   22   38 1    
    40   23   24 ar   
    41   23   39 1    
    42   24   25 ar   
    43   24   40 1    
    44   25   26 ar   
    45   26   41 1    
@<TRIPOS>SUBSTRUCTURE
     1 6TD         1 GROUP             0       ****    0 ROOT    
@<TRIPOS>MOLECULE
3CCN_ligand
37   40    1
SMALL
USER_CHARGES


@<TRIPOS>ATOM
      1 N1         17.2259   14.1248  137.6882 N.pl3     1 LKG         0.1922 
      2 N3         17.9765   16.1465  137.0714 N.2       1 LKG        -0.5435 
      3 C4         14.8553   12.5563  139.9393 C.ar      1 LKG         0.0084 
      4 C5         15.4908   11.3096  140.1176 C.ar      1 LKG        -0.0774 
      5 C6         14.8899   10.3167  140.8885 C.ar      1 LKG        -0.1173 
      6 C7         15.5529   13.5967  139.1425 C.ar      1 LKG         0.3256 
      7 C8         15.2729   15.0081  139.3156 C.ar      1 LKG        -0.1690 
      8 C10        17.0566   15.5134  137.8036 C.ar      1 LKG         0.4733 
      9 C13        19.0567   11.6156  137.6040 C.ar      1 LKG         0.3218 
     10 C15        20.3546   10.9916  139.5681 C.ar      1 LKG        -0.2234 
     11 C17        18.5987    9.5293  138.7786 C.ar      1 LKG        -0.3209 
     12 C14        20.0734   11.8860  138.5336 C.ar      1 LKG        -0.2995 
     13 C16        19.6246    9.7958  139.6948 C.ar      1 LKG         0.3710 
     14 O1         19.9696    8.9335  140.7301 O.3       1 LKG        -0.6452 
     15 C18        18.3215   10.4325  137.7486 C.ar      1 LKG        -0.1837 
     16 C12        18.7796   12.5608  136.4330 C.3       1 LKG        -0.5758 
     17 C11        18.3009   13.9169  136.8497 C.ar      1 LKG         0.5022 
     18 N2         16.4843   13.1375  138.3179 N.2       1 LKG        -0.4580 
     19 N4         18.7846   15.0944  136.4569 N.2       1 LKG        -0.4651 
     20 C9         16.0018   15.9542  138.6527 C.ar      1 LKG        -0.2599 
     21 C3         13.6022   12.7805  140.5354 C.ar      1 LKG        -0.1890 
     22 C2         13.0026   11.7784  141.3057 C.ar      1 LKG        -0.0898 
     23 C1         13.6446   10.5481  141.4893 C.ar      1 LKG        -0.1205 
     24 HC5        16.4567   11.1382  139.6587 H         1 LKG         0.0969 
     25 HC6        15.3954    9.3676  141.0297 H         1 LKG         0.1237 
     26 HC8        14.4887   15.3060  139.9978 H         1 LKG         0.1791 
     27 HC15       21.1456   11.1979  140.2795 H         1 LKG         0.1696 
     28 HC17       18.0241    8.6123  138.8645 H         1 LKG         0.1820 
     29 HC14       20.6534   12.8009  138.4452 H         1 LKG         0.1821 
     30 HO1        19.4335    8.0887  140.7068 H         1 LKG         0.4774 
     31 HC18       17.5210   10.2119  137.0504 H         1 LKG         0.1409 
     32 H121       18.0155   12.1122  135.7834 H         1 LKG         0.1982 
     33 H122       19.6857   12.7133  135.8357 H         1 LKG         0.1776 
     34 HC9        15.8207   17.0156  138.7642 H         1 LKG         0.2099 
     35 HC3        13.0817   13.7208  140.3914 H         1 LKG         0.1457 
     36 HC2        12.0351   11.9582  141.7604 H         1 LKG         0.1272 
     37 HC1        13.1815    9.7779  142.0958 H         1 LKG         0.1331 
@<TRIPOS>BOND
     1    1    8 ar   
     2    1   17 ar   
     3    1   18 ar   
     4    2    8 ar   
     5    2   19 ar   
     6    3    4 ar   
     7    3    6 1    
     8    3   21 ar   
     9    4    5 ar   
    10    4   24 1    
    11    5   23 ar   
    12    5   25 1    
    13    6    7 ar   
    14    6   18 ar   
    15    7   20 ar   
    16    7   26 1    
    17    8   20 ar   
    18    9   12 ar   
    19    9   15 ar   
    20    9   16 1    
    21   10   12 ar   
    22   10   13 ar   
    23   10   27 1    
    24   11   13 ar   
    25   11   15 ar   
    26   11   28 1    
    27   12   29 1    
    28   13   14 1    
    29   14   30 1    
    30   15   31 1    
    31   16   17 1    
    32   16   32 1    
    33   16   33 1    
    34   17   19 ar   
    35   20   34 1    
    36   21   22 ar   
    37   21   35 1    
    38   22   23 ar   
    39   22   36 1    
    40   23   37 1    
@<TRIPOS>SUBSTRUCTURE
     1 LKG         1 GROUP             0       ****    0 ROOT    
@<TRIPOS>MOLECULE
4DEH_ligand
44   48    1
SMALL
USER_CHARGES


@<TRIPOS>ATOM
      1 C18        18.6383   10.1919  138.3087 C.ar      1 0JK        -0.2323 
      2 C17        19.5858    9.7020  139.2489 C.ar      1 0JK        -0.2791 
      3 C21        19.2434    8.7645  140.2637 C.ar      1 0JK         0.2247 
      4 C20        20.2089    8.3519  141.1570 C.ar      1 0JK        -0.5458 
      5 C19        21.5253    8.8729  141.0385 C.ar      1 0JK         0.5235 
      6 N5         21.8951    9.7531  140.1052 N.ar      1 0JK        -0.8308 
      7 C16        20.9375   10.1800  139.2063 C.ar      1 0JK         0.7525 
      8 C15        21.2964   11.1389  138.2185 C.ar      1 0JK        -0.5130 
      9 C14        20.3599   11.5999  137.3216 C.ar      1 0JK         0.0582 
     10 C13        19.0208   11.1159  137.3578 C.ar      1 0JK         0.0950 
     11 C12        17.9799   11.7636  136.4586 C.3       1 0JK        -0.2584 
     12 N4         17.6293   13.0580  137.1020 N.pl3     1 0JK         0.3249 
     13 C10        16.8328   13.2517  138.1833 C.ar      1 0JK        -0.2359 
     14 C11        15.8285   12.3282  138.7428 C.2       1 0JK         0.5934 
     15 O1         15.5263   11.2261  138.2068 O.2       1 0JK        -0.5410 
     16 N3         18.3510   14.2147  136.8117 N.2       1 0JK        -0.2796 
     17 N2         17.9620   15.1535  137.7509 N.2       1 0JK        -0.5022 
     18 C9         17.0524   14.5672  138.5833 C.ar      1 0JK         0.5927 
     19 C8         16.3704   15.1286  139.7923 C.3       1 0JK        -0.5257 
     20 C7         16.0128   13.9008  140.6573 C.3       1 0JK         0.2411 
     21 N1         15.2219   12.8776  139.8684 N.am      1 0JK        -0.4702 
     22 C4         13.8889   12.5490  140.2800 C.ar      1 0JK         0.3826 
     23 C3         13.3170   11.2928  140.0081 C.ar      1 0JK        -0.2646 
     24 C2         11.9998   11.0241  140.3933 C.ar      1 0JK        -0.0976 
     25 C1         11.2347   11.9875  141.0581 C.ar      1 0JK        -0.1596 
     26 C6         11.7985   13.2413  141.3227 C.ar      1 0JK        -0.0739 
     27 C5         13.1074   13.5259  140.9315 C.ar      1 0JK        -0.3262 
     28 HC18       17.6021    9.8763  138.3749 H         1 0JK         0.1936 
     29 HC21       18.2257    8.3910  140.3220 H         1 0JK         0.0899 
     30 HC20       19.9837    7.6426  141.9445 H         1 0JK         0.2109 
     31 HC19       22.2878    8.5496  141.7403 H         1 0JK         0.0288 
     32 HC15       22.3186   11.5006  138.2116 H         1 0JK         0.2141 
     33 HC14       20.6224   12.3590  136.5923 H         1 0JK         0.0948 
     34 H121       17.0591   11.1830  136.4136 H         1 0JK         0.1628 
     35 H122       18.3620   11.9967  135.4632 H         1 0JK         0.1389 
     36 H8_1       15.4684   15.6879  139.5108 H         1 0JK         0.1640 
     37 H8_2       17.0426   15.7882  140.3521 H         1 0JK         0.1824 
     38 H7_1       15.4381   14.1777  141.5378 H         1 0JK         0.0626 
     39 H7_2       16.9355   13.4138  140.9900 H         1 0JK         0.0434 
     40 HC3        13.9038   10.5556  139.4863 H         1 0JK         0.1659 
     41 HC2        11.5750   10.0505  140.1744 H         1 0JK         0.1311 
     42 HC1        10.2157   11.7716  141.3588 H         1 0JK         0.1321 
     43 HC6        11.2163   14.0089  141.8214 H         1 0JK         0.1257 
     44 HC5        13.4997   14.5189  141.1138 H         1 0JK         0.2063 
@<TRIPOS>BOND
     1    1    2 ar   
     2    1   10 ar   
     3    1   28 1    
     4    2    3 ar   
     5    2    7 ar   
     6    3    4 ar   
     7    3   29 1    
     8    4    5 ar   
     9    4   30 1    
    10    5    6 ar   
    11    5   31 1    
    12    6    7 ar   
    13    7    8 ar   
    14    8    9 ar   
    15    8   32 1    
    16    9   10 ar   
    17    9   33 1    
    18   10   11 1    
    19   11   12 1    
    20   11   34 1    
    21   11   35 1    
    22   12   13 ar   
    23   12   16 ar   
    24   13   14 1    
    25   13   18 ar   
    26   14   15 2    
    27   14   21 am   BACKBONE|DICT|INTERRES
    28   16   17 ar   
    29   17   18 ar   
    30   18   19 1    
    31   19   20 1    
    32   19   36 1    
    33   19   37 1    
    34   20   21 1    
    35   20   38 1    
    36   20   39 1    
    37   21   22 1    
    38   22   23 ar   
    39   22   27 ar   
    40   23   24 ar   
    41   23   40 1    
    42   24   25 ar   
    43   24   41 1    
    44   25   26 ar   
    45   25   42 1    
    46   26   27 ar   
    47   26   43 1    
    48   27   44 1    
@<TRIPOS>SUBSTRUCTURE
     1 0JK         1 GROUP             0       ****    0 ROOT    
@<TRIPOS>MOLECULE
3CD8_ligand
46   50    1
SMALL
USER_CHARGES


@<TRIPOS>ATOM
      1 N1         16.5323   12.7394  138.2759 N.2       1 L5G        -0.5215 
      2 N3         18.1184   15.7847  137.1855 N.2       1 L5G        -0.5133 
      3 C4         15.1508   12.1318  140.1335 C.ar      1 L5G         0.0539 
      4 C5         13.8693   12.3685  140.6612 C.ar      1 L5G        -0.2061 
      5 C6         13.2410   11.3835  141.4274 C.ar      1 L5G        -0.0701 
      6 C7         15.8459   13.1676  139.3291 C.ar      1 L5G         0.3601 
      7 C8         15.8008   14.5474  139.7649 C.ar      1 L5G        -0.1734 
      8 C10        17.2905   15.1156  137.9925 C.ar      1 L5G         0.4370 
      9 C13        19.1732   11.1635  137.8226 C.ar      1 L5G         0.7153 
     10 C15        20.7589   11.9571  139.4489 C.ar      1 L5G         0.4671 
     11 C17        19.4776   10.1072  140.0114 C.ar      1 L5G         0.8986 
     12 C20        17.5001    8.2046  139.3553 C.ar      1 L5G        -0.4271 
     13 C21        17.8715    9.1306  138.4156 C.ar      1 L5G         0.1071 
     14 C22        18.0906    7.2344  142.9028 C.3       1 L5G        -0.0449 
     15 O2         17.4887    7.3470  141.5548 O.3       1 L5G        -0.3957 
     16 C19        18.0654    8.2379  140.6629 C.ar      1 L5G         0.5691 
     17 C18        19.0564    9.1507  140.9732 C.ar      1 L5G        -0.6663 
     18 C16        18.8461   10.1146  138.7307 C.ar      1 L5G        -0.6123 
     19 N5         20.4469   11.0309  140.3599 N.ar      1 L5G        -0.8624 
     20 C14        20.1499   12.0779  138.1771 C.ar      1 L5G        -0.6754 
     21 O1         18.4374   11.1640  136.6565 O.3       1 L5G        -0.3639 
     22 C12        18.4150   12.3630  135.8049 C.3       1 L5G        -0.1118 
     23 C11        18.1119   13.6202  136.5612 C.ar      1 L5G         0.3100 
     24 N2         17.2512   13.7572  137.6301 N.pl3     1 L5G         0.2996 
     25 N4         18.6563   14.7979  136.2671 N.2       1 L5G        -0.4320 
     26 C9         16.5093   15.5121  139.1121 C.ar      1 L5G        -0.2464 
     27 C3         15.7920   10.9077  140.3855 C.ar      1 L5G        -0.1528 
     28 C2         15.1684    9.9318  141.1666 C.ar      1 L5G        -0.0014 
     29 C1         13.8902   10.1685  141.6852 C.ar      1 L5G        -0.1897 
     30 HC5        13.3582   13.3028  140.4548 H         1 L5G         0.1479 
     31 HC6        12.2464   11.5614  141.8200 H         1 L5G         0.1267 
     32 HC8        15.2210   14.7850  140.6468 H         1 L5G         0.1734 
     33 HC15       21.5290   12.6726  139.7218 H         1 L5G         0.0626 
     34 HC20       16.7434    7.4576  139.1520 H         1 L5G         0.1844 
     35 HC21       17.4079    9.1491  137.4387 H         1 L5G         0.1167 
     36 H221       17.5209    6.4487  143.4003 H         1 L5G         0.1201 
     37 H222       19.1464    6.9490  142.8330 H         1 L5G         0.0991 
     38 H223       17.9954    8.1766  143.4529 H         1 L5G         0.0893 
     39 HC18       19.5194    9.1918  141.9496 H         1 L5G         0.2144 
     40 HC14       20.4504   12.8867  137.5260 H         1 L5G         0.2450 
     41 H121       17.6285   12.1469  135.0747 H         1 L5G         0.1917 
     42 H122       19.3692   12.5084  135.2867 H         1 L5G         0.1333 
     43 HC9        16.5217   16.5483  139.4247 H         1 L5G         0.2154 
     44 HC3        16.7750   10.7368  139.9760 H         1 L5G         0.0961 
     45 HC2        15.6743    8.9962  141.3751 H         1 L5G         0.0871 
     46 HC1        13.4018    9.4105  142.2878 H         1 L5G         0.1455 
@<TRIPOS>BOND
     1    1    6 ar   
     2    1   24 ar   
     3    2    8 ar   
     4    2   25 ar   
     5    3    4 ar   
     6    3    6 1    
     7    3   27 ar   
     8    4    5 ar   
     9    4   30 1    
    10    5   29 ar   
    11    5   31 1    
    12    6    7 ar   
    13    7   26 ar   
    14    7   32 1    
    15    8   24 ar   
    16    8   26 ar   
    17    9   18 ar   
    18    9   20 ar   
    19    9   21 1    
    20   10   19 ar   
    21   10   20 ar   
    22   10   33 1    
    23   11   17 ar   
    24   11   18 ar   
    25   11   19 ar   
    26   12   13 ar   
    27   12   16 ar   
    28   12   34 1    
    29   13   18 ar   
    30   13   35 1    
    31   14   15 1    
    32   14   36 1    
    33   14   37 1    
    34   14   38 1    
    35   15   16 1    
    36   16   17 ar   
    37   17   39 1    
    38   20   40 1    
    39   21   22 1    
    40   22   23 1    
    41   22   41 1    
    42   22   42 1    
    43   23   24 ar   
    44   23   25 ar   
    45   26   43 1    
    46   27   28 ar   
    47   27   44 1    
    48   28   29 ar   
    49   28   45 1    
    50   29   46 1    
@<TRIPOS>SUBSTRUCTURE
     1 L5G         1 GROUP             0       ****    0 ROOT    
