@<TRIPOS>MOLECULE
BRD4, Ligand 1
26   28    1
SMALL
USER_CHARGES


@<TRIPOS>ATOM
      1 N           2.7960   -3.1170   11.5320 N.pl3     1 L8A         0.0142 
      2 N1          2.5010   -4.1570    9.3850 N.2       1 L8A        -0.6230 
      3 N2          3.1660   -3.4780   12.7880 N.2       1 L8A        -0.5741 
      4 N3          3.1910   -5.2940   11.4140 N.2       1 L8A        -0.3543 
      5 C           2.4400   -1.8530   11.0440 C.ar      1 L8A         0.1157 
      6 C1          2.1160   -1.7280    9.7460 C.ar      1 L8A        -0.3103 
      7 C2          2.8220   -4.2440   10.7070 C.ar      1 L8A         0.3935 
      8 C3          2.1730   -2.9820    8.9350 C.ar      1 L8A         0.4656 
      9 C4          1.8140   -2.8670    7.4750 C.3       1 L8A        -0.1584 
     10 C5          3.3840   -4.7830   12.6560 C.ar      1 L8A         0.5192 
     11 C6          2.4000   -0.6670   11.9180 C.ar      1 L8A        -0.0730 
     12 C7          3.0530    0.5050   11.5340 C.ar      1 L8A        -0.0890 
     13 C8          3.0160    1.6280   12.3610 C.ar      1 L8A        -0.1355 
     14 C9          2.3260    1.5790   13.5730 C.ar      1 L8A        -0.1070 
     15 C10         1.6740    0.4080   13.9570 C.ar      1 L8A        -0.1355 
     16 C11         1.7100   -0.7140   13.1300 C.ar      1 L8A        -0.0890 
     17 H           1.8440   -0.8220    9.3340 H         1 L8A         0.1650 
     18 H1          1.8940   -3.8280    7.0110 H         1 L8A         0.0637 
     19 H2          2.4830   -2.1830    6.9960 H         1 L8A         0.0637 
     20 H3          0.8100   -2.5080    7.3820 H         1 L8A         0.0637 
     21 H4          3.6820   -5.3710   13.4500 H         1 L8A         0.0818 
     22 H5          3.5640    0.5410   10.6380 H         1 L8A         0.1450 
     23 H6          3.4990    2.4950   12.0770 H         1 L8A         0.1390 
     24 H7          2.2980    2.4090   14.1850 H         1 L8A         0.1370 
     25 H8          1.1650    0.3720   14.8540 H         1 L8A         0.1390 
     26 H9          1.2260   -1.5800   13.4140 H         1 L8A         0.1450 
@<TRIPOS>BOND
     1    1    3 ar   
     2    1    5 ar   
     3    1    7 ar   
     4    2    7 ar   
     5    2    8 ar   
     6    3   10 ar   
     7    4    7 ar   
     8    4   10 ar   
     9    5    6 ar   
    10    5   11 1    
    11    6    8 ar   
    12    6   17 1    
    13    8    9 1    
    14    9   18 1    
    15    9   19 1    
    16    9   20 1    
    17   10   21 1    
    18   11   12 ar   
    19   11   16 ar   
    20   12   13 ar   
    21   12   22 1    
    22   13   14 ar   
    23   13   23 1    
    24   14   15 ar   
    25   14   24 1    
    26   15   16 ar   
    27   15   25 1    
    28   16   26 1    
@<TRIPOS>SUBSTRUCTURE
     1 L8A         1 GROUP             0       ****    0 ROOT    
@<TRIPOS>MOLECULE
BRD4, Ligand 2
28   30    1
SMALL
USER_CHARGES


@<TRIPOS>ATOM
      1 C4          2.3290   -0.4450   12.7930 C.ar      1 25O        -0.0700 
      2 C5          2.7590    0.8410   12.6090 C.ar      1 25O        -0.0895 
      3 C6          2.6270    1.7630   13.6140 C.ar      1 25O        -0.1365 
      4 C11         2.8130   -4.6970   13.0350 C.ar      1 25O         0.7052 
      5 C7          2.0240    1.4500   14.7790 C.ar      1 25O        -0.1090 
      6 C8          1.5500    0.2180   14.9900 C.ar      1 25O        -0.1365 
      7 C9          1.7130   -0.7570   14.0030 C.ar      1 25O        -0.0895 
      8 C10         2.3660   -3.8640   11.0930 C.ar      1 25O         0.4185 
      9 N1          2.0930   -3.6140    9.8130 N.2       1 25O        -0.6370 
     10 N2          2.5720   -5.0630   11.7030 N.2       1 25O        -0.3933 
     11 C3          2.2010   -1.4470   11.7510 C.ar      1 25O         0.1187 
     12 N3          3.1010   -5.7000   13.9740 N.pl3     1 25O        -0.8508 
     13 C1          1.8860   -2.2960    9.4870 C.ar      1 25O         0.4696 
     14 C           1.5410   -1.8970    8.0400 C.3       1 25O        -0.1574 
     15 N4          2.7610   -3.3370   13.3270 N.2       1 25O        -0.6281 
     16 N           2.4620   -2.7980   12.1030 N.pl3     1 25O         0.0252 
     17 C2          1.9410   -1.2450   10.4130 C.ar      1 25O        -0.3243 
     18 H           3.1840    1.1170   11.7100 H         1 25O         0.1460 
     19 H1          2.9970    2.7170   13.4770 H         1 25O         0.1380 
     20 H2          1.9280    2.1680   15.5140 H         1 25O         0.1360 
     21 H3          1.0680   -0.0110   15.8740 H         1 25O         0.1380 
     22 H4          1.3740   -1.7170   14.1720 H         1 25O         0.1460 
     23 H5          3.1210   -6.6440   13.6950 H         1 25O         0.4138 
     24 H6          3.2830   -5.4590   14.9110 H         1 25O         0.4138 
     25 H7          1.5260   -2.7710    7.4230 H         1 25O         0.0630 
     26 H8          2.2780   -1.2140    7.6730 H         1 25O         0.0630 
     27 H9          0.5790   -1.4290    8.0190 H         1 25O         0.0630 
     28 H10         1.7800   -0.2820   10.0790 H         1 25O         0.1640 
@<TRIPOS>BOND
     1    1    2 ar   
     2    1    7 ar   
     3    1   11 1    
     4    2    3 ar   
     5    2   18 1    
     6    3    5 ar   
     7    3   19 1    
     8    4   10 ar   
     9    4   12 1    
    10    4   15 ar   
    11    5    6 ar   
    12    5   20 1    
    13    6    7 ar   
    14    6   21 1    
    15    7   22 1    
    16    8    9 ar   
    17    8   10 ar   
    18    8   16 ar   
    19    9   13 ar   
    20   11   16 ar   
    21   11   17 ar   
    22   12   23 1    
    23   12   24 1    
    24   13   14 1    
    25   13   17 ar   
    26   14   25 1    
    27   14   26 1    
    28   14   27 1    
    29   15   16 ar   
    30   17   28 1    
@<TRIPOS>SUBSTRUCTURE
     1 25O         1 GROUP             0       ****    0 ROOT    
@<TRIPOS>MOLECULE
BRD4, Ligand 3
51   53    1
SMALL
USER_CHARGES


@<TRIPOS>ATOM
      1 O4         -2.5980   -1.6620   17.4180 O.2       1 2SJ        -0.6051 
      2 C12        -1.5620   -1.8410   16.7820 C.2       1 2SJ         0.6611 
      3 C13        -1.0610   -3.2230   16.6120 C.3       1 2SJ        -0.1701 
      4 N1         -0.8630   -0.8230   16.2620 N.am      1 2SJ        -0.5719 
      5 C11         0.3210   -0.9980   15.4410 C.3       1 2SJ         0.1339 
      6 C14         1.5100   -1.5290   16.2010 C.ar      1 2SJ        -0.0252 
      7 C15         1.5040   -1.3380   17.5310 C.ar      1 2SJ        -0.2412 
      8 C10         0.7010    0.3120   14.7470 C.3       1 2SJ        -0.0774 
      9 C9          1.9070    0.1900   13.8120 C.3       1 2SJ        -0.0401 
     10 C8          2.0470   -1.1760   13.1630 C.ar      1 2SJ        -0.0353 
     11 C7          1.8890   -1.3140   11.7880 C.ar      1 2SJ        -0.1970 
     12 C5          2.0180   -2.5530   11.1740 C.ar      1 2SJ         0.1121 
     13 C3          2.2970   -3.6630   11.9290 C.ar      1 2SJ         0.0491 
     14 C1          2.4760   -3.5350   13.2870 C.ar      1 2SJ         0.1181 
     15 O1          2.7490   -4.6590   14.0140 O.3       1 2SJ        -0.3329 
     16 C2          1.7330   -5.1660   14.8800 C.3       1 2SJ         0.1177 
     17 O2          2.4860   -4.8720   11.3240 O.3       1 2SJ        -0.3169 
     18 C4          1.4570   -5.8030   11.2690 C.3       1 2SJ         0.1107 
     19 O3          1.8780   -2.7410    9.8250 O.3       1 2SJ        -0.3239 
     20 C6          1.5630   -1.6740    8.9450 C.3       1 2SJ         0.1117 
     21 C22         2.3450   -2.2940   13.9160 C.ar      1 2SJ        -0.0788 
     22 C21         2.5380   -2.1990   15.4060 C.ar      1 2SJ        -0.0502 
     23 C20         3.6970   -2.7550   15.8300 C.ar      1 2SJ        -0.0460 
     24 C19         4.2500   -2.8990   17.1550 C.ar      1 2SJ        -0.2240 
     25 C17         3.7300   -2.4760   18.3070 C.ar      1 2SJ         0.0529 
     26 C16         2.4870   -1.7540   18.5270 C.ar      1 2SJ         0.5845 
     27 O5          2.2110   -1.4770   19.6910 O.2       1 2SJ        -0.4991 
     28 O6          4.4140   -2.7540   19.3990 O.3       1 2SJ        -0.4721 
     29 H          -0.1570   -3.2070   16.0390 H         1 2SJ         0.0674 
     30 H1         -1.7970   -3.8090   16.1020 H         1 2SJ         0.0674 
     31 H2         -0.8670   -3.6530   17.5730 H         1 2SJ         0.0674 
     32 H3         -1.1690    0.0940   16.4470 H         1 2SJ         0.3145 
     33 H4          0.0590   -1.7360   14.7120 H         1 2SJ         0.0767 
     34 H5          0.6890   -0.8240   17.9010 H         1 2SJ         0.1540 
     35 H6         -0.1380    0.6450   14.1730 H         1 2SJ         0.0562 
     36 H7          0.9730    1.0040   15.5160 H         1 2SJ         0.0562 
     37 H8          1.8090    0.9220   13.0380 H         1 2SJ         0.0622 
     38 H9          2.7810    0.3400   14.4110 H         1 2SJ         0.0622 
     39 H10         1.6730   -0.4830   11.2150 H         1 2SJ         0.1440 
     40 H11         2.0930   -6.0420   15.3770 H         1 2SJ         0.0430 
     41 H12         0.8650   -5.4130   14.3050 H         1 2SJ         0.0430 
     42 H13         1.4800   -4.4220   15.6060 H         1 2SJ         0.0430 
     43 H14         1.7970   -6.6800   10.7590 H         1 2SJ         0.0460 
     44 H15         0.6250   -5.3840   10.7430 H         1 2SJ         0.0460 
     45 H16         1.1570   -6.0620   12.2630 H         1 2SJ         0.0460 
     46 H17         1.5020   -2.0440    7.9430 H         1 2SJ         0.0480 
     47 H18         2.3260   -0.9260    9.0030 H         1 2SJ         0.0480 
     48 H19         0.6230   -1.2470    9.2250 H         1 2SJ         0.0480 
     49 H20         4.2860   -3.1420   15.0760 H         1 2SJ         0.1570 
     50 H21         5.1570   -3.3880   17.2180 H         1 2SJ         0.1380 
     51 H22         5.2260   -3.2180   19.3380 H         1 2SJ         0.4210 
@<TRIPOS>BOND
     1    1    2 2    
     2    2    3 1    
     3    2    4 am   BACKBONE|DICT|INTERRES
     4    3   29 1    
     5    3   30 1    
     6    3   31 1    
     7    4    5 1    
     8    4   32 1    
     9    5    6 1    
    10    5    8 1    
    11    5   33 1    
    12    6    7 ar   
    13    6   22 ar   
    14    7   26 ar   
    15    7   34 1    
    16    8    9 1    
    17    8   35 1    
    18    8   36 1    
    19    9   10 1    
    20    9   37 1    
    21    9   38 1    
    22   10   11 ar   
    23   10   21 ar   
    24   11   12 ar   
    25   11   39 1    
    26   12   13 ar   
    27   12   19 1    
    28   13   14 ar   
    29   13   17 1    
    30   14   15 1    
    31   14   21 ar   
    32   15   16 1    
    33   16   40 1    
    34   16   41 1    
    35   16   42 1    
    36   17   18 1    
    37   18   43 1    
    38   18   44 1    
    39   18   45 1    
    40   19   20 1    
    41   20   46 1    
    42   20   47 1    
    43   20   48 1    
    44   21   22 1    
    45   22   23 ar   
    46   23   24 ar   
    47   23   49 1    
    48   24   25 ar   
    49   24   50 1    
    50   25   26 ar   
    51   25   28 1    
    52   26   27 2    
    53   28   51 1    
@<TRIPOS>SUBSTRUCTURE
     1 2SJ         1 GROUP             0       ****    0 ROOT    
@<TRIPOS>MOLECULE
BRD4, Ligand 4
22   23    1
SMALL
USER_CHARGES


@<TRIPOS>ATOM
      1 OAM         2.0570   -4.8250   10.0430 O.2       1 15F        -0.6575 
      2 CAH         2.2400   -3.7540   10.6870 C.2       1 15F         0.8095 
      3 NAG         2.7280   -3.7680   12.0360 N.am      1 15F        -0.4681 
      4 CAD         2.5890   -2.6440   12.8810 C.ar      1 15F         0.1076 
      5 CAC         2.6070   -2.7850   14.2840 C.ar      1 15F        -0.1840 
      6 CAB         2.4460   -1.6990   15.1050 C.ar      1 15F        -0.0620 
      7 CAA         2.2740   -0.4380   14.5660 C.ar      1 15F        -0.0649 
      8 Br          2.1310    1.0990   15.7350 Br        1 15F        -0.0831 
      9 CAF         2.3150   -0.2740   13.1790 C.ar      1 15F        -0.0590 
     10 CAE         2.4260   -1.3780   12.3190 C.ar      1 15F        -0.1533 
     11 CAJ         2.4780   -1.2660   10.8920 C.3       1 15F         0.1463 
     12 NAI         2.0200   -2.5260   10.1550 N.am      1 15F        -0.4588 
     13 CAL         1.6400   -2.3580    8.7460 C.3       1 15F         0.0813 
     14 H           3.1690   -4.5780   12.3800 H         1 15F         0.3465 
     15 H1          2.7430   -3.7200   14.6990 H         1 15F         0.1440 
     16 H2          2.4530   -1.8240   16.1290 H         1 15F         0.1500 
     17 H3          2.2630    0.6760   12.7790 H         1 15F         0.1490 
     18 H4          1.8480   -0.4540   10.5940 H         1 15F         0.0512 
     19 H5          3.5030   -1.1080   10.6300 H         1 15F         0.0512 
     20 H6          1.3400   -3.3030    8.3420 H         1 15F         0.0514 
     21 H7          2.4760   -1.9830    8.1930 H         1 15F         0.0514 
     22 H8          0.8270   -1.6660    8.6760 H         1 15F         0.0514 
@<TRIPOS>BOND
     1    1    2 2    
     2    2    3 am   BACKBONE|DICT|INTERRES
     3    2   12 am   BACKBONE|DICT|INTERRES
     4    3    4 1    
     5    3   14 1    
     6    4    5 ar   
     7    4   10 ar   
     8    5    6 ar   
     9    5   15 1    
    10    6    7 ar   
    11    6   16 1    
    12    7    8 1    
    13    7    9 ar   
    14    9   10 ar   
    15    9   17 1    
    16   10   11 1    
    17   11   12 1    
    18   11   18 1    
    19   11   19 1    
    20   12   13 1    
    21   13   20 1    
    22   13   21 1    
    23   13   22 1    
@<TRIPOS>SUBSTRUCTURE
     1 15F         1 GROUP             0       ****    0 ROOT    
@<TRIPOS>MOLECULE
BRD4, Ligand 5
37   40    1
SMALL
USER_CHARGES


@<TRIPOS>ATOM
      1 CAS         2.1290   -0.9870   13.1590 C.ar      1 08H        -0.0673 
      2 CAJ         2.3790    0.2880   13.6910 C.ar      1 08H        -0.1130 
      3 CAP         2.9870    1.2310   12.8720 C.ar      1 08H         0.0144 
      4 ClAB        3.3180    2.8300   13.4830 Cl        1 08H        -0.0794 
      5 CAH         3.3260    0.9880   11.5350 C.ar      1 08H        -0.1090 
      6 CAI         3.0650   -0.2910   11.0120 C.ar      1 08H        -0.1410 
      7 CAU         2.4600   -1.2450   11.8200 C.ar      1 08H         0.0308 
      8 NAV         2.2610   -2.4640   11.1890 N.pl3     1 08H        -0.2558 
      9 CAR         1.8610   -2.7750    9.9270 C.ar      1 08H         0.3738 
     10 CAA         1.4310   -1.8170    8.8000 C.3       1 08H        -0.1234 
     11 NAM         1.8340   -4.1020    9.7850 N.2       1 08H        -0.3490 
     12 NAN         2.2330   -4.6440   10.8780 N.2       1 08H        -0.3410 
     13 CAT         2.4940   -3.6520   11.7600 C.ar      1 08H         0.3758 
     14 CAK         2.8900   -3.8190   13.1940 C.3       1 08H         0.1605 
     15 NAL         1.7470   -3.2490   13.9570 N.3       1 08H        -0.8562 
     16 CAO         1.5060   -1.9220   14.0440 C.3       1 08H         0.2941 
     17 CAQ         0.3490   -1.5560   14.8260 C.ar      1 08H        -0.1003 
     18 CAF        -0.3930   -0.4170   14.5250 C.ar      1 08H        -0.1110 
     19 CAD        -1.5570   -0.0930   15.2240 C.ar      1 08H        -0.1325 
     20 CAC        -2.0000   -0.8770   16.2860 C.ar      1 08H        -0.1210 
     21 CAE        -1.2580   -1.9990   16.5980 C.ar      1 08H        -0.1325 
     22 CAG        -0.1050   -2.3250   15.8900 C.ar      1 08H        -0.1110 
     23 H           2.1190    0.5180   14.6630 H         1 08H         0.1570 
     24 H1          3.7540    1.7240   10.9520 H         1 08H         0.1550 
     25 H2          3.3200   -0.5180   10.0380 H         1 08H         0.1520 
     26 H3          1.1760   -2.3830    7.9290 H         1 08H         0.0630 
     27 H4          2.2370   -1.1520    8.5700 H         1 08H         0.0630 
     28 H5          0.5810   -1.2500    9.1190 H         1 08H         0.0630 
     29 H6          3.7920   -3.2820   13.4040 H         1 08H         0.0647 
     30 H7          3.0850   -4.8400   13.4490 H         1 08H         0.0647 
     31 H8          1.8580   -3.5770   14.9160 H         1 08H         0.3988 
     32 H9          2.3200   -1.5980   14.6580 H         1 08H         0.0267 
     33 H10        -0.0740    0.2040   13.7650 H         1 08H         0.1405 
     34 H11        -2.0980    0.7420   14.9490 H         1 08H         0.1345 
     35 H12        -2.8490   -0.6300   16.8180 H         1 08H         0.1340 
     36 H13        -1.5650   -2.6080   17.3720 H         1 08H         0.1345 
     37 H14         0.4290   -3.1640   16.1640 H         1 08H         0.1405 
@<TRIPOS>BOND
     1    1    2 ar   
     2    1    7 ar   
     3    1   16 1    
     4    2    3 ar   
     5    2   23 1    
     6    3    4 1    
     7    3    5 ar   
     8    5    6 ar   
     9    5   24 1    
    10    6    7 ar   
    11    6   25 1    
    12    7    8 1    
    13    8    9 ar   
    14    8   13 ar   
    15    9   10 1    
    16    9   11 ar   
    17   10   26 1    
    18   10   27 1    
    19   10   28 1    
    20   11   12 ar   
    21   12   13 ar   
    22   13   14 1    
    23   14   15 1    
    24   14   29 1    
    25   14   30 1    
    26   15   16 1    
    27   15   31 1    
    28   16   17 1    
    29   16   32 1    
    30   17   18 ar   
    31   17   22 ar   
    32   18   19 ar   
    33   18   33 1    
    34   19   20 ar   
    35   19   34 1    
    36   20   21 ar   
    37   20   35 1    
    38   21   22 ar   
    39   21   36 1    
    40   22   37 1    
@<TRIPOS>SUBSTRUCTURE
     1 08H         1 GROUP             0       ****    0 ROOT    
@<TRIPOS>MOLECULE
BRD4, Ligand 6
49   51    1
SMALL
USER_CHARGES


@<TRIPOS>ATOM
      1 O1          2.5440    1.0790   12.3730 O.3       1 1K0        -0.3249 
      2 C1          2.6960    1.5850   13.7160 C.3       1 1K0         0.1117 
      3 C2          2.5440   -0.3150   12.2440 C.ar      1 1K0         0.1981 
      4 C3          2.3270   -0.8650   10.9970 C.ar      1 1K0        -0.2710 
      5 C4          2.2710   -2.2500   10.8730 C.ar      1 1K0         0.2251 
      6 N1          2.5640   -5.2610   13.0620 N.pl3     1 1K0        -0.4994 
      7 C5          1.5670   -1.9880    8.4960 C.3       1 1K0         0.1077 
      8 O2          2.0400   -2.8230    9.6390 O.3       1 1K0        -0.2889 
      9 C6          2.4560   -3.0890   11.9740 C.ar      1 1K0        -0.2536 
     10 O3          4.2340   -7.9140   18.6430 O.3       1 1K0        -0.3409 
     11 N2          2.8670   -3.2920   14.4230 N.2       1 1K0        -0.6331 
     12 C7          2.3840   -4.5480   11.8210 C.ar      1 1K0         0.7211 
     13 C8          2.7770   -4.6200   14.2770 C.ar      1 1K0         0.5585 
     14 O4          6.1530   -9.4750   20.2080 O.3       1 1K0        -0.5998 
     15 O5          2.2030   -5.2120   10.7900 O.2       1 1K0        -0.6025 
     16 C9          3.0080   -5.4910   15.5000 C.ar      1 1K0        -0.1519 
     17 C18         3.2760   -6.8410   15.3030 C.ar      1 1K0        -0.0925 
     18 C16         3.6340   -7.6610   16.3800 C.ar      1 1K0        -0.0888 
     19 C17         3.9320   -9.1210   16.1180 C.3       1 1K0        -0.0563 
     20 C13         3.7410   -7.1070   17.6250 C.ar      1 1K0         0.1091 
     21 C14         5.6580   -7.7100   18.7820 C.3       1 1K0         0.1264 
     22 C15         6.2500   -9.1430   18.8430 C.3       1 1K0         0.0974 
     23 C11         3.4820   -5.7410   17.8840 C.ar      1 1K0        -0.0888 
     24 C12         3.6820   -5.1610   19.2650 C.3       1 1K0        -0.0563 
     25 C10         3.0890   -4.9160   16.8020 C.ar      1 1K0        -0.0925 
     26 C19         2.7030   -2.5300   13.2410 C.ar      1 1K0         0.2514 
     27 C20         2.7640   -1.1260   13.3960 C.ar      1 1K0        -0.2450 
     28 H           2.6820    2.6550   13.6980 H         1 1K0         0.0494 
     29 H1          3.6270    1.2470   14.1210 H         1 1K0         0.0494 
     30 H2          1.8920    1.2280   14.3250 H         1 1K0         0.0494 
     31 H3          2.2080   -0.2590   10.1700 H         1 1K0         0.1600 
     32 H4          2.5350   -6.2450   13.0480 H         1 1K0         0.3385 
     33 H5          1.4460   -2.6050    7.6300 H         1 1K0         0.0497 
     34 H6          2.2870   -1.2230    8.2910 H         1 1K0         0.0497 
     35 H7          0.6300   -1.5370    8.7470 H         1 1K0         0.0497 
     36 H8          6.5040  -10.3680   20.3490 H         1 1K0         0.4060 
     37 H9          3.2100   -7.2420   14.3540 H         1 1K0         0.1485 
     38 H10         3.7840   -9.3350   15.0800 H         1 1K0         0.0520 
     39 H11         3.2760   -9.7300   16.7050 H         1 1K0         0.0520 
     40 H12         4.9470   -9.3310   16.3840 H         1 1K0         0.0520 
     41 H13         5.8770   -7.1710   19.6800 H         1 1K0         0.0702 
     42 H14         6.0670   -7.1340   17.9790 H         1 1K0         0.0702 
     43 H15         7.2690   -9.1510   18.5180 H         1 1K0         0.0337 
     44 H16         5.7390   -9.8350   18.2060 H         1 1K0         0.0337 
     45 H17         3.4340   -4.1200   19.2540 H         1 1K0         0.0520 
     46 H18         4.7040   -5.2810   19.5580 H         1 1K0         0.0520 
     47 H19         3.0500   -5.6710   19.9610 H         1 1K0         0.0520 
     48 H20         2.8660   -3.9200   16.9530 H         1 1K0         0.1485 
     49 H21         2.9620   -0.7010   14.3150 H         1 1K0         0.1590 
@<TRIPOS>BOND
     1    1    2 1    
     2    1    3 1    
     3    2   28 1    
     4    2   29 1    
     5    2   30 1    
     6    3    4 ar   
     7    3   27 ar   
     8    4    5 ar   
     9    4   31 1    
    10    5    8 1    
    11    5    9 ar   
    12    6   12 ar   
    13    6   13 ar   
    14    6   32 1    
    15    7    8 1    
    16    7   33 1    
    17    7   34 1    
    18    7   35 1    
    19    9   12 ar   
    20    9   26 ar   
    21   10   20 1    
    22   10   21 1    
    23   11   13 ar   
    24   11   26 ar   
    25   12   15 2    
    26   13   16 1    
    27   14   22 1    
    28   14   36 1    
    29   16   17 ar   
    30   16   25 ar   
    31   17   18 ar   
    32   17   37 1    
    33   18   19 1    
    34   18   20 ar   
    35   19   38 1    
    36   19   39 1    
    37   19   40 1    
    38   20   23 ar   
    39   21   22 1    
    40   21   41 1    
    41   21   42 1    
    42   22   43 1    
    43   22   44 1    
    44   23   24 1    
    45   23   25 ar   
    46   24   45 1    
    47   24   46 1    
    48   24   47 1    
    49   25   48 1    
    50   26   27 ar   
    51   27   49 1    
@<TRIPOS>SUBSTRUCTURE
     1 1K0         1 GROUP             0       ****    0 ROOT    
@<TRIPOS>MOLECULE
BRD4, Ligand 7
37   40    1
SMALL
USER_CHARGES


@<TRIPOS>ATOM
      1 ClA         3.2590    2.9010   13.4290 Cl        1 08K        -0.0744 
      2 CAP         2.9360    1.2890   12.8120 C.ar      1 08K         0.0064 
      3 CAJ         2.3430    0.3620   13.6330 C.ar      1 08K        -0.0830 
      4 CAS         2.0690   -0.9160   13.1160 C.ar      1 08K        -0.1775 
      5 CAO         1.4040   -1.9100   14.0170 C.2       1 08K         0.2500 
      6 CAQ         0.2390   -1.4510   14.8530 C.ar      1 08K        -0.1625 
      7 CAG        -0.5130   -0.3110   14.5260 C.ar      1 08K        -0.1005 
      8 CAE        -1.6410    0.0420   15.2720 C.ar      1 08K        -0.1340 
      9 CAC        -2.0370   -0.7510   16.3420 C.ar      1 08K        -0.1160 
     10 CAD        -1.3100   -1.9100   16.6370 C.ar      1 08K        -0.1340 
     11 CAF        -0.1850   -2.2490   15.9160 C.ar      1 08K        -0.1005 
     12 NAL         1.7010   -3.1700   13.9680 N.2       1 08K        -0.2484 
     13 NAK         2.7470   -3.7670   13.1430 N.pl3     1 08K         0.0132 
     14 C23         3.4820   -4.9110   13.6300 C.3       1 08K         0.0096 
     15 CAT         2.4970   -3.6210   11.8170 C.ar      1 08K         0.4100 
     16 NAV         2.1950   -2.4930   11.2130 N.pl3     1 08K        -0.2758 
     17 CAR         1.8170   -2.7700    9.9500 C.ar      1 08K         0.3808 
     18 CAA         1.4340   -1.8400    8.8530 C.3       1 08K        -0.1224 
     19 NAM         1.8190   -4.0880    9.8010 N.2       1 08K        -0.3390 
     20 NAN         2.2650   -4.6660   11.0030 N.2       1 08K        -0.3510 
     21 CAU         2.4030   -1.2480   11.7870 C.ar      1 08K         0.0418 
     22 CAI         3.0600   -0.2560   11.0340 C.ar      1 08K        -0.1410 
     23 CAH         3.3050    1.0110   11.5140 C.ar      1 08K        -0.0980 
     24 H           2.1040    0.5980   14.6090 H         1 08K         0.1670 
     25 H1         -0.2290    0.2740   13.7240 H         1 08K         0.1425 
     26 H2         -2.1780    0.8890   15.0290 H         1 08K         0.1370 
     27 H3         -2.8570   -0.4890   16.9120 H         1 08K         0.1350 
     28 H4         -1.6220   -2.5210   17.4080 H         1 08K         0.1370 
     29 H5          0.3470   -3.0980   16.1640 H         1 08K         0.1425 
     30 H6          4.2020   -5.2100   12.8980 H         1 08K         0.0600 
     31 H7          2.8040   -5.7180   13.8150 H         1 08K         0.0600 
     32 H8          3.9840   -4.6520   14.5390 H         1 08K         0.0600 
     33 H9          1.1890   -2.4030    7.9770 H         1 08K         0.0644 
     34 H10         2.2530   -1.1850    8.6390 H         1 08K         0.0644 
     35 H11         0.5850   -1.2630    9.1550 H         1 08K         0.0644 
     36 H12         3.3720   -0.4890   10.0780 H         1 08K         0.1540 
     37 H13         3.7500    1.7290   10.9210 H         1 08K         0.1570 
@<TRIPOS>BOND
     1    1    2 1    
     2    2    3 ar   
     3    2   23 ar   
     4    3    4 ar   
     5    3   24 1    
     6    4    5 1    
     7    4   21 ar   
     8    5    6 1    
     9    5   12 2    
    10    6    7 ar   
    11    6   11 ar   
    12    7    8 ar   
    13    7   25 1    
    14    8    9 ar   
    15    8   26 1    
    16    9   10 ar   
    17    9   27 1    
    18   10   11 ar   
    19   10   28 1    
    20   11   29 1    
    21   12   13 1    
    22   13   14 1    
    23   13   15 1    
    24   14   30 1    
    25   14   31 1    
    26   14   32 1    
    27   15   16 ar   
    28   15   20 ar   
    29   16   17 ar   
    30   16   21 1    
    31   17   18 1    
    32   17   19 ar   
    33   18   33 1    
    34   18   34 1    
    35   18   35 1    
    36   19   20 ar   
    37   21   22 ar   
    38   22   23 ar   
    39   22   36 1    
    40   23   37 1    
@<TRIPOS>SUBSTRUCTURE
     1 08K         1 GROUP             0       ****    0 ROOT    
@<TRIPOS>MOLECULE
BRD4, Ligand 8
42   44    1
SMALL
USER_CHARGES


@<TRIPOS>ATOM
      1 O1          3.3590    6.0150   13.0690 O.3       1 1K0        -0.3249 
      2 C1          3.4800    6.2060   11.6760 C.3       1 1K0         0.1117 
      3 C2          3.2320    4.7640   13.6200 C.ar      1 1K0         0.1981 
      4 C3          3.2490    4.6200   15.0170 C.ar      1 1K0        -0.2720 
      5 C4          3.1460    3.4130   15.6180 C.ar      1 1K0         0.2251 
      6 N1          2.8600   -0.1910   14.5760 N.pl3     1 1K0        -0.4994 
      7 C5          3.1640    4.4600   17.8150 C.3       1 1K0         0.1077 
      8 O2          3.1130    3.2650   17.0000 O.3       1 1K0        -0.2889 
      9 C6          3.0390    2.2280   14.8720 C.ar      1 1K0        -0.2536 
     10 O3          2.2700   -4.7190   10.2560 O.3       1 1K0        -0.4921 
     11 N2          2.9640    1.2430   12.6620 N.2       1 1K0        -0.6371 
     12 C7          2.9420    0.9190   15.4510 C.ar      1 1K0         0.7211 
     13 C8          2.8810    0.0150   13.2310 C.ar      1 1K0         0.5645 
     14 O5          2.9580    0.6740   16.6750 O.2       1 1K0        -0.6035 
     15 C9          2.7950   -1.1630   12.3520 C.ar      1 1K0        -0.1829 
     16 C18         2.2000   -1.1600   11.0730 C.ar      1 1K0        -0.0640 
     17 C16         2.0370   -2.3470   10.3720 C.ar      1 1K0        -0.1318 
     18 C17         1.3240   -2.2540    9.0610 C.3       1 1K0        -0.0508 
     19 C13         2.5090   -3.5740   10.9120 C.ar      1 1K0         0.1431 
     20 C11         3.1500   -3.5880   12.1430 C.ar      1 1K0        -0.1318 
     21 C12         3.6620   -4.8880   12.6860 C.3       1 1K0        -0.0508 
     22 C10         3.2880   -2.4170   12.8540 C.ar      1 1K0        -0.0640 
     23 C19         3.0310    2.4050   13.4570 C.ar      1 1K0         0.2524 
     24 C20         3.1180    3.6350   12.8260 C.ar      1 1K0        -0.2460 
     25 H           3.5670    7.2520   11.4660 H         1 1K0         0.0487 
     26 H1          2.6130    5.8140   11.1860 H         1 1K0         0.0487 
     27 H2          4.3520    5.6970   11.3210 H         1 1K0         0.0487 
     28 H3          3.3430    5.4630   15.6040 H         1 1K0         0.1600 
     29 H4          2.7880   -1.1040   14.9370 H         1 1K0         0.3375 
     30 H5          3.1300    4.1880   18.8490 H         1 1K0         0.0497 
     31 H6          2.3270    5.0860   17.5830 H         1 1K0         0.0497 
     32 H7          4.0720    4.9900   17.6150 H         1 1K0         0.0497 
     33 H8          1.8370   -4.7010    9.4250 H         1 1K0         0.4250 
     34 H9          1.8840   -0.2700   10.6560 H         1 1K0         0.1485 
     35 H10         1.2610   -3.2270    8.6190 H         1 1K0         0.0494 
     36 H11         1.8630   -1.6000    8.4080 H         1 1K0         0.0494 
     37 H12         0.3380   -1.8690    9.2180 H         1 1K0         0.0494 
     38 H13         3.4580   -5.6720   11.9870 H         1 1K0         0.0494 
     39 H14         3.1760   -5.1030   13.6140 H         1 1K0         0.0494 
     40 H15         4.7180   -4.8170   12.8440 H         1 1K0         0.0494 
     41 H16         3.7580   -2.4400   13.7720 H         1 1K0         0.1485 
     42 H17         3.0980    3.7080   11.7970 H         1 1K0         0.1580 
@<TRIPOS>BOND
     1    1    2 1    
     2    1    3 1    
     3    2   25 1    
     4    2   26 1    
     5    2   27 1    
     6    3    4 ar   
     7    3   24 ar   
     8    4    5 ar   
     9    4   28 1    
    10    5    8 1    
    11    5    9 ar   
    12    6   12 ar   
    13    6   13 ar   
    14    6   29 1    
    15    7    8 1    
    16    7   30 1    
    17    7   31 1    
    18    7   32 1    
    19    9   12 ar   
    20    9   23 ar   
    21   10   19 1    
    22   10   33 1    
    23   11   13 ar   
    24   11   23 ar   
    25   12   14 2    
    26   13   15 1    
    27   15   16 ar   
    28   15   22 ar   
    29   16   17 ar   
    30   16   34 1    
    31   17   18 1    
    32   17   19 ar   
    33   18   35 1    
    34   18   36 1    
    35   18   37 1    
    36   19   20 ar   
    37   20   21 1    
    38   20   22 ar   
    39   21   38 1    
    40   21   39 1    
    41   21   40 1    
    42   22   41 1    
    43   23   24 ar   
    44   24   42 1    
@<TRIPOS>SUBSTRUCTURE
     1 1K0         1 GROUP             0       ****    0 ROOT    
@<TRIPOS>MOLECULE
BRD4, Ligand 9
56   59    1
SMALL
USER_CHARGES


@<TRIPOS>ATOM
      1 CAA         1.6700   -1.8220    8.9660 C.3       1 JQ1        -0.1244 
      2 CAB         3.5630    2.5900   12.6940 C.3       1 JQ1        -0.0258 
      3 CAC         2.1860    1.0680   15.0570 C.3       1 JQ1        -0.0408 
      4 CAD         2.4750   -3.5130   18.0630 C.3       1 JQ1        -0.1121 
      5 CAE         4.8380   -4.4980   18.2330 C.3       1 JQ1        -0.1121 
      6 CAF         4.4780   -2.1360   17.5320 C.3       1 JQ1        -0.1121 
      7 OAG         2.9210   -5.9690   16.2840 O.2       1 JQ1        -0.5420 
      8 ClAH       -3.5980   -0.0260   17.1610 Cl        1 JQ1        -0.0894 
      9 CAI        -1.6650    0.2210   15.2970 C.ar      1 JQ1        -0.1310 
     10 CAJ        -1.5000   -1.7310   16.6620 C.ar      1 JQ1        -0.1310 
     11 CAK        -0.5210   -0.1750   14.5970 C.ar      1 JQ1        -0.0915 
     12 CAL        -0.3720   -2.1360   15.9570 C.ar      1 JQ1        -0.0915 
     13 CAM         3.1090   -5.0610   14.0560 C.3       1 JQ1        -0.1074 
     14 NAN         1.5850   -3.0930   14.2270 N.2       1 JQ1        -0.5769 
     15 NAO         2.0240   -4.0930   10.0460 N.2       1 JQ1        -0.3370 
     16 NAP         2.3110   -4.5930   11.1920 N.2       1 JQ1        -0.3320 
     17 OAQ         3.7400   -3.8820   16.0700 O.3       1 JQ1        -0.4549 
     18 SAR         3.1990    0.1300   11.2480 S.3       1 JQ1         0.0532 
     19 CAS         3.2440   -5.0120   15.5820 C.2       1 JQ1         0.6521 
     20 CAT         1.3260   -1.7750   14.2070 C.2       1 JQ1         0.5585 
     21 CAU        -2.1710   -0.5630   16.3070 C.ar      1 JQ1         0.0264 
     22 CAV         2.0010   -2.7530   10.1340 C.ar      1 JQ1         0.3788 
     23 CAW         0.1430   -1.3530   14.9100 C.ar      1 JQ1        -0.1329 
     24 CAX         3.0370    1.1350   12.6420 C.2       1 JQ1        -0.1174 
     25 CAY         2.4210    0.4380   13.6740 C.2       1 JQ1        -0.0583 
     26 CAZ         2.4840   -3.5660   12.0460 C.ar      1 JQ1         0.3598 
     27 CBA         2.0190   -0.8830   13.3360 C.2       1 JQ1        -0.2089 
     28 CBB         2.3830   -1.1950   12.0120 C.2       1 JQ1        -0.0133 
     29 CBC         2.7920   -3.6570   13.5550 C.3       1 JQ1         0.1182 
     30 NBD         2.2600   -2.4130   11.4150 N.pl3     1 JQ1        -0.2378 
     31 CBE         3.8730   -3.5440   17.5000 C.3       1 JQ1         0.1738 
     32 H           1.5170   -2.4020    8.0800 H         1 JQ1         0.0664 
     33 H1          2.4810   -1.1410    8.8110 H         1 JQ1         0.0664 
     34 H2          0.7800   -1.2710    9.1900 H         1 JQ1         0.0664 
     35 H3          3.9870    2.8500   11.7460 H         1 JQ1         0.0534 
     36 H4          4.3120    2.6720   13.4540 H         1 JQ1         0.0534 
     37 H5          2.7540    3.2540   12.9170 H         1 JQ1         0.0534 
     38 H6          2.5750    2.0650   15.0660 H         1 JQ1         0.0544 
     39 H7          2.6830    0.4850   15.8040 H         1 JQ1         0.0544 
     40 H8          1.1360    1.0930   15.2640 H         1 JQ1         0.0544 
     41 H9          1.8780   -2.8290   17.4970 H         1 JQ1         0.0497 
     42 H10         2.5090   -3.1960   19.0840 H         1 JQ1         0.0497 
     43 H11         2.0460   -4.4920   18.0070 H         1 JQ1         0.0497 
     44 H12         5.8010   -4.4560   17.7690 H         1 JQ1         0.0497 
     45 H13         4.4600   -5.4980   18.1800 H         1 JQ1         0.0497 
     46 H14         4.9220   -4.2020   19.2580 H         1 JQ1         0.0497 
     47 H15         3.8240   -1.4550   17.0280 H         1 JQ1         0.0497 
     48 H16         5.4290   -2.1450   17.0420 H         1 JQ1         0.0497 
     49 H17         4.6030   -1.8240   18.5480 H         1 JQ1         0.0497 
     50 H18        -2.1330    1.1080   15.0540 H         1 JQ1         0.1510 
     51 H19        -1.8420   -2.2990   17.4530 H         1 JQ1         0.1510 
     52 H20        -0.1640    0.4200   13.8330 H         1 JQ1         0.1480 
     53 H21         0.0930   -3.0230   16.2060 H         1 JQ1         0.1480 
     54 H22         4.0270   -5.4000   13.6230 H         1 JQ1         0.1012 
     55 H23         2.3260   -5.7360   13.7780 H         1 JQ1         0.1012 
     56 H24         3.6870   -3.1150   13.7780 H         1 JQ1         0.0887 
@<TRIPOS>BOND
     1    1   22 1    
     2    1   32 1    
     3    1   33 1    
     4    1   34 1    
     5    2   24 1    
     6    2   35 1    
     7    2   36 1    
     8    2   37 1    
     9    3   25 1    
    10    3   38 1    
    11    3   39 1    
    12    3   40 1    
    13    4   31 1    
    14    4   41 1    
    15    4   42 1    
    16    4   43 1    
    17    5   31 1    
    18    5   44 1    
    19    5   45 1    
    20    5   46 1    
    21    6   31 1    
    22    6   47 1    
    23    6   48 1    
    24    6   49 1    
    25    7   19 2    
    26    8   21 1    
    27    9   11 ar   
    28    9   21 ar   
    29    9   50 1    
    30   10   12 ar   
    31   10   21 ar   
    32   10   51 1    
    33   11   23 ar   
    34   11   52 1    
    35   12   23 ar   
    36   12   53 1    
    37   13   19 1    
    38   13   29 1    
    39   13   54 1    
    40   13   55 1    
    41   14   20 2    
    42   14   29 1    
    43   15   16 ar   
    44   15   22 ar   
    45   16   26 ar   
    46   17   19 1    
    47   17   31 1    
    48   18   24 1    
    49   18   28 1    
    50   20   23 1    
    51   20   27 1    
    52   22   30 ar   
    53   24   25 2    
    54   25   27 1    
    55   26   29 1    
    56   26   30 ar   
    57   27   28 2    
    58   28   30 1    
    59   29   56 1    
@<TRIPOS>SUBSTRUCTURE
     1 JQ1         1 GROUP             0       ****    0 ROOT    
@<TRIPOS>MOLECULE
BRD4, Ligand 10
45   48    1
SMALL
USER_CHARGES


@<TRIPOS>ATOM
      1 C23        -0.4560   -0.7180   14.5920 C.ar      1 1XB        -0.0960 
      2 C28        -0.0210   -2.3470   16.2980 C.ar      1 1XB        -0.0960 
      3 C24        -1.6270   -0.3260   15.2100 C.ar      1 1XB        -0.1305 
      4 C27        -1.1970   -1.9620   16.9150 C.ar      1 1XB        -0.1305 
      5 C8          2.3920   -2.4660   11.6170 C.2       1 1XB        -0.2536 
      6 C22         0.3470   -1.7090   15.1310 C.ar      1 1XB        -0.1339 
      7 C5          2.1870   -1.0500   13.5970 C.2       1 1XB        -0.2109 
      8 C3          2.4960    0.2850   14.0180 C.2       1 1XB        -0.0643 
      9 C25        -1.9890   -0.9610   16.3800 C.ar      1 1XB         0.0244 
     10 C6          2.5060   -1.2410   12.2620 C.2       1 1XB        -0.0181 
     11 C9          2.7210   -3.6030   12.3080 C.2       1 1XB         0.2630 
     12 C12         2.0480   -2.8820   10.3070 C.2       1 1XB         0.3426 
     13 C2          3.0530    1.0370   12.9970 C.2       1 1XB        -0.1254 
     14 C21         1.5800   -2.0950   14.4180 C.2       1 1XB         0.5805 
     15 C17         3.9020   -5.1620   15.5670 C.2       1 1XB         0.6601 
     16 C14         3.1440   -3.7250   13.7230 C.3       1 1XB         0.1082 
     17 C4          2.2970    0.8110   15.3840 C.3       1 1XB        -0.0398 
     18 C13         1.6290   -2.0830    9.1420 C.3       1 1XB        -0.1354 
     19 C1          3.5140    2.4400   13.0160 C.3       1 1XB        -0.0238 
     20 C16         3.5220   -5.1320   14.1180 C.3       1 1XB        -0.1404 
     21 N11         2.1540   -4.2160   10.2220 N.2       1 1XB        -0.3553 
     22 N20         1.9630   -3.3410   14.4970 N.2       1 1XB        -0.6159 
     23 N18         3.7400   -6.4120   16.1060 N.am      1 1XB        -0.6540 
     24 O19         4.3180   -4.1940   16.1890 O.2       1 1XB        -0.6221 
     25 O10         2.5670   -4.6750   11.4770 O.3       1 1XB        -0.0961 
     26 S7          3.1830    0.1500   11.5300 S.3       1 1XB         0.0752 
     27 Cl2        -3.4570   -0.4830   17.1650 Cl        1 1XB        -0.0884 
     28 H          -0.1730   -0.2630   13.7100 H         1 1XB         0.1480 
     29 H1          0.5670   -3.0930   16.7000 H         1 1XB         0.1480 
     30 H2         -2.2150    0.4210   14.8080 H         1 1XB         0.1510 
     31 H3         -1.4890   -2.4280   17.7880 H         1 1XB         0.1510 
     32 H4          4.0110   -3.1210   13.8920 H         1 1XB         0.0927 
     33 H5          2.6100    1.8340   15.4220 H         1 1XB         0.0517 
     34 H6          2.8760    0.2350   16.0760 H         1 1XB         0.0517 
     35 H7          1.2610    0.7450   15.6440 H         1 1XB         0.0517 
     36 H8          1.4480   -2.7320    8.3110 H         1 1XB         0.0624 
     37 H9          2.4020   -1.3880    8.8900 H         1 1XB         0.0624 
     38 H10         0.7330   -1.5490    9.3790 H         1 1XB         0.0624 
     39 H11         3.8920    2.7040   12.0510 H         1 1XB         0.0507 
     40 H12         4.2890    2.5510   13.7450 H         1 1XB         0.0507 
     41 H13         2.6950    3.0810   13.2660 H         1 1XB         0.0507 
     42 H14         4.3510   -5.4580   13.5250 H         1 1XB         0.0862 
     43 H15         2.6880   -5.7830   13.9560 H         1 1XB         0.0862 
     44 H16         3.4000   -7.1480   15.5480 H         1 1XB         0.3120 
     45 H17         3.9640   -6.5730   17.0510 H         1 1XB         0.3120 
@<TRIPOS>BOND
     1    1    3 ar   
     2    1    6 ar   
     3    1   28 1    
     4    2    4 ar   
     5    2    6 ar   
     6    2   29 1    
     7    3    9 ar   
     8    3   30 1    
     9    4    9 ar   
    10    4   31 1    
    11    5   10 1    
    12    5   11 2    
    13    5   12 1    
    14    6   14 1    
    15    7    8 1    
    16    7   10 2    
    17    7   14 1    
    18    8   13 2    
    19    8   17 1    
    20    9   27 1    
    21   10   26 1    
    22   11   16 1    
    23   11   25 1    
    24   12   18 1    
    25   12   21 2    
    26   13   19 1    
    27   13   26 1    
    28   14   22 2    
    29   15   20 1    
    30   15   23 am   BACKBONE|DICT|INTERRES
    31   15   24 2    
    32   16   20 1    
    33   16   22 1    
    34   16   32 1    
    35   17   33 1    
    36   17   34 1    
    37   17   35 1    
    38   18   36 1    
    39   18   37 1    
    40   18   38 1    
    41   19   39 1    
    42   19   40 1    
    43   19   41 1    
    44   20   42 1    
    45   20   43 1    
    46   21   25 1    
    47   23   44 1    
    48   23   45 1    
@<TRIPOS>SUBSTRUCTURE
     1 1XB         1 GROUP             0       ****    0 ROOT    
