@<TRIPOS>MOLECULE
5EOB_ligand
40   44    1
SMALL
USER_CHARGES


@<TRIPOS>ATOM
      1 C13        18.5699   12.6227  136.3593 C.3       1 5QQ         0.5066 
      2 C17        20.5071   12.0231  137.8842 C.ar      1 5QQ        -0.0864 
      3 C21        20.4672    8.1778  140.7002 C.ar      1 5QQ         0.0162 
      4 C22        19.1762    7.8238  140.3215 C.ar      1 5QQ        -0.1839 
      5 C24        19.1538    9.7650  138.8691 C.ar      1 5QQ         0.0386 
      6 C28        14.5964   11.6209  139.7839 C.ar      1 5QQ        -0.0702 
      7 F01        11.5602   10.4108  141.3882 F         1 5QQ        -0.2094 
      8 C02        12.4726   11.2536  140.8534 C.ar      1 5QQ         0.2343 
      9 C03        12.2224   12.6211  140.8340 C.ar      1 5QQ        -0.1682 
     10 C04        13.1630   13.4871  140.2834 C.ar      1 5QQ        -0.0702 
     11 C05        14.3625   13.0074  139.7332 C.ar      1 5QQ        -0.0721 
     12 C06        15.3535   13.9414  139.0949 C.ar      1 5QQ        -0.0046 
     13 C07        15.3185   15.3391  139.2592 C.ar      1 5QQ        -0.0099 
     14 N08        16.2299   16.1888  138.7090 N.2       1 5QQ        -0.2283 
     15 C09        17.1742   15.6170  137.9578 C.ar      1 5QQ         0.3607 
     16 N10        18.1838   16.1720  137.2528 N.2       1 5QQ        -0.3892 
     17 N11        18.8527   15.1243  136.6378 N.2       1 5QQ         0.0417 
     18 C12        18.2390   13.9925  136.9181 C.ar      1 5QQ        -0.2177 
     19 F14        19.3980   12.7107  135.3189 F         1 5QQ        -0.1990 
     20 F15        17.4616   12.0572  135.8812 F         1 5QQ        -0.1990 
     21 C16        19.2213   11.7278  137.4155 C.ar      1 5QQ        -0.1653 
     22 C18        21.1310   11.2141  138.8292 C.ar      1 5QQ        -0.1660 
     23 C19        20.4735   10.0625  139.3243 C.ar      1 5QQ         0.1311 
     24 N20        21.1182    9.2649  140.2194 N.ar      1 5QQ        -0.2531 
     25 C23        18.5088    8.6165  139.3927 C.ar      1 5QQ        -0.1245 
     26 C25        18.5433   10.6132  137.9199 C.ar      1 5QQ        -0.1198 
     27 N26        17.1923   14.2292  137.7793 N.pl3     1 5QQ         0.2209 
     28 N27        16.3220   13.3640  138.3247 N.2       1 5QQ        -0.1192 
     29 C29        13.6603   10.7510  140.3347 C.ar      1 5QQ        -0.1682 
     30 HC17       21.0321   12.8890  137.5071 H         1 5QQ         0.1373 
     31 HC21       21.0063    7.5769  141.4169 H         1 5QQ         0.1610 
     32 HC22       18.7021    6.9451  140.7355 H         1 5QQ         0.1466 
     33 HC28       15.5088   11.1989  139.3883 H         1 5QQ         0.1447 
     34 HC03       11.3006   13.0090  141.2406 H         1 5QQ         0.1551 
     35 HC04       12.9164   14.5359  140.2604 H         1 5QQ         0.1447 
     36 HC07       14.5453   15.8256  139.8207 H         1 5QQ         0.1861 
     37 HC18       22.1294   11.4483  139.1725 H         1 5QQ         0.1560 
     38 HC23       17.5092    8.3619  139.0708 H         1 5QQ         0.1412 
     39 HC25       17.5416   10.3764  137.5908 H         1 5QQ         0.1463 
     40 HC29       13.8540    9.6887  140.3583 H         1 5QQ         0.1551 
@<TRIPOS>BOND
     1    1   18 1    
     2    1   19 1    
     3    1   20 1    
     4    1   21 1    
     5    2   21 ar   
     6    2   22 ar   
     7    2   30 1    
     8    3    4 ar   
     9    3   24 ar   
    10    3   31 1    
    11    4   25 ar   
    12    4   32 1    
    13    5   23 ar   
    14    5   25 ar   
    15    5   26 ar   
    16    6   11 ar   
    17    6   29 ar   
    18    6   33 1    
    19    7    8 1    
    20    8    9 ar   
    21    8   29 ar   
    22    9   10 ar   
    23    9   34 1    
    24   10   11 ar   
    25   10   35 1    
    26   11   12 1    
    27   12   13 ar   
    28   12   28 ar   
    29   13   14 ar   
    30   13   36 1    
    31   14   15 ar   
    32   15   16 ar   
    33   15   27 ar   
    34   16   17 ar   
    35   17   18 ar   
    36   18   27 ar   
    37   21   26 ar   
    38   22   23 ar   
    39   22   37 1    
    40   23   24 ar   
    41   25   38 1    
    42   26   39 1    
    43   27   28 ar   
    44   29   40 1    
@<TRIPOS>SUBSTRUCTURE
     1 5QQ         1 GROUP             0 A     ****    0 ROOT    
@<TRIPOS>MOLECULE
4DEI_ligand
55   59    1
SMALL
USER_CHARGES


@<TRIPOS>ATOM
      1 CBF        10.6461   12.2817  141.6697 C.3       1 0JL        -0.1832 
      2 CBE        12.0390   12.1101  141.1049 C.2       1 0JL         0.1766 
      3 CBB        12.8565   13.1094  140.5732 C.2       1 0JL        -0.1901 
      4 NBD        12.5098   10.8833  141.1177 N.2       1 0JL        -0.2707 
      5 S          14.0848   10.8944  140.4595 S.3       1 0JL         0.1255 
      6 CBA        14.0762   12.6112  140.1102 C.2       1 0JL        -0.0703 
      7 NAZ        15.1597   13.3034  139.5144 N.pl3     1 0JL         0.0761 
      8 CAT        15.8591   12.7297  138.4594 C.ar      1 0JL         0.4107 
      9 CAS        16.8738   13.6770  137.9726 C.ar      1 0JL        -0.2412 
     10 OBG        15.6519   11.6098  137.9891 O.2       1 0JL        -0.4959 
     11 CAY        15.2473   14.6436  139.8618 C.ar      1 0JL        -0.1347 
     12 CAX        16.0821   15.5445  139.3116 C.ar      1 0JL        -0.2453 
     13 CAW        16.9683   15.0348  138.2938 C.ar      1 0JL         0.1224 
     14 NAV        17.9300   15.6337  137.6297 N.2       1 0JL        -0.1621 
     15 NAU        18.5666   14.6676  136.8832 N.2       1 0JL        -0.1254 
     16 NAR        17.9051   13.5110  137.0719 N.pl3     1 0JL         0.2350 
     17 CAP        18.3970   12.2676  136.4679 C.3       1 0JL         0.0418 
     18 CAQ        19.1352   12.5181  135.1338 C.3       1 0JL        -0.2061 
     19 CAO        19.2265   11.4649  137.4711 C.ar      1 0JL        -0.1011 
     20 CAI        18.6529   10.3664  138.1179 C.ar      1 0JL        -0.1317 
     21 CAH        19.3771    9.6384  139.0833 C.ar      1 0JL         0.0751 
     22 CAG        18.8228    8.5437  139.7940 C.ar      1 0JL        -0.1695 
     23 CAN        20.5314   11.8524  137.7914 C.ar      1 0JL        -0.1176 
     24 CAM        21.2773   11.1489  138.7306 C.ar      1 0JL        -0.1572 
     25 CAL        20.7161   10.0273  139.3825 C.ar      1 0JL         0.0820 
     26 NAK        21.4697    9.3493  140.2854 N.ar      1 0JL        -0.1920 
     27 CAJ        20.9092    8.3123  140.9483 C.ar      1 0JL        -0.0592 
     28 CAF        19.5951    7.8988  140.7568 C.ar      1 0JL         0.1148 
     29 OAE        19.0939    6.8533  141.4832 O.3       1 0JL        -0.3759 
     30 CAD        18.5495    7.2141  142.7486 C.3       1 0JL         0.1485 
     31 CAC        18.7813    6.0728  143.7457 C.3       1 0JL         0.1461 
     32 OAB        18.1736    4.8866  143.2505 O.3       1 0JL        -0.4514 
     33 CAA        18.3253    3.7697  144.1108 C.3       1 0JL         0.1388 
     34 HBF1       10.5946   11.9874  142.7180 H         1 0JL         0.0834 
     35 HBF2       10.3093   13.3173  141.6146 H         1 0JL         0.0834 
     36 HBF3        9.9105   11.6849  141.1288 H         1 0JL         0.0834 
     37 HCBB       12.5511   14.1421  140.5046 H         1 0JL         0.1818 
     38 HCAY       14.6151   14.9326  140.6747 H         1 0JL         0.1688 
     39 HCAX       16.1211   16.5671  139.6545 H         1 0JL         0.1789 
     40 HCAP       17.5084   11.6930  136.2062 H         1 0JL         0.1164 
     41 HAQ1       19.3361   11.5836  134.6119 H         1 0JL         0.0848 
     42 HAQ2       18.5537   13.1614  134.4764 H         1 0JL         0.0848 
     43 HAQ3       20.0875   13.0210  135.2905 H         1 0JL         0.0848 
     44 HCAI       17.6364   10.0704  137.9175 H         1 0JL         0.1444 
     45 HCAG       17.8059    8.2320  139.6026 H         1 0JL         0.1530 
     46 HCAN       20.9784   12.7147  137.3183 H         1 0JL         0.1416 
     47 HCAM       22.2857   11.4575  138.9661 H         1 0JL         0.1533 
     48 HCAJ       21.5355    7.8063  141.6678 H         1 0JL         0.1631 
     49 HAD1       17.4817    7.4044  142.6313 H         1 0JL         0.0489 
     50 HAD2       18.9899    8.1287  143.1482 H         1 0JL         0.0489 
     51 HAC1       18.3599    6.3438  144.7158 H         1 0JL         0.0399 
     52 HAC2       19.8539    5.9211  143.8841 H         1 0JL         0.0399 
     53 HAA1       17.8728    2.8920  143.6496 H         1 0JL         0.0346 
     54 HAA2       19.3762    3.5439  144.2964 H         1 0JL         0.0346 
     55 HAA3       17.8302    3.9380  145.0684 H         1 0JL         0.0346 
@<TRIPOS>BOND
     1    1    2 1    
     2    1   34 1    
     3    1   35 1    
     4    1   36 1    
     5    2    3 1    
     6    2    4 2    
     7    3    6 2    
     8    3   37 1    
     9    4    5 1    
    10    5    6 1    
    11    6    7 1    
    12    7    8 ar   
    13    7   11 ar   
    14    8    9 ar   
    15    8   10 2    
    16    9   13 ar   
    17    9   16 ar   
    18   11   12 ar   
    19   11   38 1    
    20   12   13 ar   
    21   12   39 1    
    22   13   14 ar   
    23   14   15 ar   
    24   15   16 ar   
    25   16   17 1    
    26   17   18 1    
    27   17   19 1    
    28   17   40 1    
    29   18   41 1    
    30   18   42 1    
    31   18   43 1    
    32   19   20 ar   
    33   19   23 ar   
    34   20   21 ar   
    35   20   44 1    
    36   21   22 ar   
    37   21   25 ar   
    38   22   28 ar   
    39   22   45 1    
    40   23   24 ar   
    41   23   46 1    
    42   24   25 ar   
    43   24   47 1    
    44   25   26 ar   
    45   26   27 ar   
    46   27   28 ar   
    47   27   48 1    
    48   28   29 1    
    49   29   30 1    
    50   30   31 1    
    51   30   49 1    
    52   30   50 1    
    53   31   32 1    
    54   31   51 1    
    55   31   52 1    
    56   32   33 1    
    57   33   53 1    
    58   33   54 1    
    59   33   55 1    
@<TRIPOS>SUBSTRUCTURE
     1 0JL         1 GROUP             0 A     ****    0 ROOT    
@<TRIPOS>MOLECULE
4XYF_ligand
55   59    1
SMALL
USER_CHARGES


@<TRIPOS>ATOM
      1 C21        10.9787   11.2196  141.7135 C.3       1 44X        -0.1920 
      2 C19        12.2732   11.5030  140.9907 C.2       1 44X         0.2066 
      3 C20        12.9583   12.7078  140.8686 C.2       1 44X        -0.4032 
      4 N5         12.8969   10.5384  140.3517 N.2       1 44X        -0.1311 
      5 O1         14.0155   11.1197  139.7533 O.3       1 44X        -0.2007 
      6 C18        14.0462   12.4413  140.0638 C.2       1 44X         0.2018 
      7 C15        15.1264   13.2760  139.4660 C.ar      1 44X        -0.0684 
      8 C16        15.2425   14.6225  139.8114 C.ar      1 44X        -0.0982 
      9 C17        16.1834   15.4611  139.2179 C.ar      1 44X        -0.0058 
     10 F1         16.2675   16.7559  139.5874 F         1 44X        -0.1351 
     11 C14        16.0104   12.7462  138.5274 C.ar      1 44X        -0.2191 
     12 N2         16.9380   13.5654  137.9327 N.pl3     1 44X         0.2942 
     13 C13        17.0381   14.9302  138.2388 C.ar      1 44X         0.3491 
     14 N3         18.0160   15.4841  137.4858 N.2       1 44X        -0.3929 
     15 N4         18.5685   14.4610  136.7386 N.2       1 44X        -0.0003 
     16 C11        17.9252   13.3403  136.9992 C.ar      1 44X        -0.1761 
     17 C10        18.2510   11.9606  136.4552 C.3       1 44X        -0.0387 
     18 C12        18.9609   12.0142  135.0909 C.3       1 44X        -0.1740 
     19 C7         19.0605   11.1738  137.4834 C.ar      1 44X        -0.0678 
     20 C6         18.4706   10.0959  138.1452 C.ar      1 44X        -0.1759 
     21 C4         19.2010    9.3460  139.0903 C.ar      1 44X         0.0841 
     22 C3         18.6424    8.2511  139.7918 C.ar      1 44X        -0.1805 
     23 C8         20.3716   11.5474  137.7979 C.ar      1 44X        -0.1251 
     24 C9         21.1116   10.8385  138.7381 C.ar      1 44X        -0.1468 
     25 C5         20.5456    9.7134  139.3812 C.ar      1 44X         0.0713 
     26 N1         21.2997    9.0105  140.2646 N.ar      1 44X        -0.1810 
     27 C1         20.7316    7.9702  140.9175 C.ar      1 44X        -0.0660 
     28 C2         19.3976    7.5764  140.7488 C.ar      1 44X         0.1210 
     29 O2         18.7612    6.5792  141.4605 O.3       1 44X        -0.3766 
     30 C22        19.4345    5.9226  142.5345 C.3       1 44X         0.1480 
     31 C23        18.4177    5.5120  143.6040 C.3       1 44X         0.1463 
     32 O3         17.8311    6.6822  144.1616 O.3       1 44X        -0.4509 
     33 C24        16.9854    6.4130  145.2690 C.3       1 44X         0.1386 
     34 H211       11.0975   10.4351  142.4608 H         1 44X         0.0861 
     35 H212       10.6061   12.1026  142.2326 H         1 44X         0.0861 
     36 H213       10.1946   10.8994  141.0269 H         1 44X         0.0861 
     37 HC20       12.6674   13.6577  141.2876 H         1 44X         0.2217 
     38 HC16       14.5855   15.0372  140.5493 H         1 44X         0.1815 
     39 HC14       15.9903   11.7138  138.2138 H         1 44X         0.2283 
     40 HC10       17.3154   11.4284  136.2724 H         1 44X         0.1172 
     41 H121       19.1854   11.0107  134.7331 H         1 44X         0.0732 
     42 H122       18.3436   12.5093  134.3408 H         1 44X         0.0732 
     43 H123       19.8995   12.5613  135.1514 H         1 44X         0.0732 
     44 HC6        17.4399    9.8340  137.9639 H         1 44X         0.1321 
     45 HC3        17.6161    7.9660  139.6082 H         1 44X         0.1497 
     46 HC8        20.8248   12.3993  137.3113 H         1 44X         0.1361 
     47 HC9        22.1252   11.1340  138.9674 H         1 44X         0.1534 
     48 HC1        21.3950    7.4713  141.6051 H         1 44X         0.1641 
     49 H221       20.1771    6.5444  143.0330 H         1 44X         0.0498 
     50 H222       19.9467    5.0455  142.1405 H         1 44X         0.0498 
     51 H231       18.9292    4.9364  144.3782 H         1 44X         0.0395 
     52 H232       17.6482    4.8724  143.1681 H         1 44X         0.0395 
     53 H241       16.5567    7.3423  145.6407 H         1 44X         0.0349 
     54 H242       16.1604    5.7556  144.9905 H         1 44X         0.0349 
     55 H243       17.5401    5.9543  146.0892 H         1 44X         0.0349 
@<TRIPOS>BOND
     1    1    2 1    
     2    1   34 1    
     3    1   35 1    
     4    1   36 1    
     5    2    3 1    
     6    2    4 2    
     7    3    6 2    
     8    3   37 1    
     9    4    5 1    
    10    5    6 1    
    11    6    7 1    
    12    7    8 ar   
    13    7   11 ar   
    14    8    9 ar   
    15    8   38 1    
    16    9   10 1    
    17    9   13 ar   
    18   11   12 ar   
    19   11   39 1    
    20   12   13 ar   
    21   12   16 ar   
    22   13   14 ar   
    23   14   15 ar   
    24   15   16 ar   
    25   16   17 1    
    26   17   18 1    
    27   17   19 1    
    28   17   40 1    
    29   18   41 1    
    30   18   42 1    
    31   18   43 1    
    32   19   20 ar   
    33   19   23 ar   
    34   20   21 ar   
    35   20   44 1    
    36   21   22 ar   
    37   21   25 ar   
    38   22   28 ar   
    39   22   45 1    
    40   23   24 ar   
    41   23   46 1    
    42   24   25 ar   
    43   24   47 1    
    44   25   26 ar   
    45   26   27 ar   
    46   27   28 ar   
    47   27   48 1    
    48   28   29 1    
    49   29   30 1    
    50   30   31 1    
    51   30   49 1    
    52   30   50 1    
    53   31   32 1    
    54   31   51 1    
    55   31   52 1    
    56   32   33 1    
    57   33   53 1    
    58   33   54 1    
    59   33   55 1    
@<TRIPOS>SUBSTRUCTURE
     1 44X         1 GROUP             0 A     ****    0 ROOT    
@<TRIPOS>MOLECULE
6SDE_ligand
41   45    1
SMALL
USER_CHARGES


@<TRIPOS>ATOM
      1 C1         18.6486   12.5195  136.6585 C.3       1 V0L         0.0961 
      2 C8         19.5301   11.7814  137.6572 C.ar      1 V0L        -0.1705 
      3 C9         20.8056   12.2617  137.9733 C.ar      1 V0L        -0.0900 
      4 C10        21.6314   11.5887  138.8736 C.ar      1 V0L        -0.3482 
      5 C11        21.1660   10.4011  139.4649 C.ar      1 V0L         0.3671 
      6 N1         19.8751    9.9487  139.1410 N.pl3     1 V0L         0.3785 
      7 C13        19.0637   10.6174  138.2670 C.ar      1 V0L        -0.2109 
      8 C14        19.6892    8.8006  139.8655 C.ar      1 V0L        -0.6337 
      9 C15        20.8705    8.6251  140.5774 C.ar      1 V0L         0.1019 
     10 N2         21.7690    9.5534  140.3341 N.2       1 V0L        -0.4777 
     11 C17        19.3198   12.6635  135.2746 C.3       1 V0L        -0.2107 
     12 N3         18.1704   13.7925  137.1898 N.pl3     1 V0L         0.0252 
     13 C19        17.1095   14.0298  138.0449 C.ar      1 V0L        -0.1421 
     14 C20        17.1412   15.4212  138.2877 C.ar      1 V0L        -0.1102 
     15 N5         18.1982   15.9675  137.6326 N.2       1 V0L        -0.1400 
     16 N4         18.8545   14.9403  136.9932 N.2       1 V0L         0.0233 
     17 N23        16.2235   16.0186  139.0518 N.ar      1 V0L         0.0897 
     18 N24        16.2005   13.1901  138.5568 N.ar      1 V0L        -0.0160 
     19 C25        15.2550   13.8056  139.3269 C.ar      1 V0L        -0.0003 
     20 C26        15.2671   15.1911  139.5527 C.ar      1 V0L        -0.1610 
     21 C27        14.1837   12.9261  139.8808 C.ar      1 V0L        -0.1790 
     22 C28        14.0464   11.5295  139.7796 C.ar      1 V0L        -0.0742 
     23 N8         12.9591   11.0629  140.3513 N.2       1 V0L        -0.2119 
     24 N9         12.3624   12.1422  140.8646 N.pl3     1 V0L         0.0968 
     25 C31        13.0529   13.2926  140.5986 C.ar      1 V0L        -0.1614 
     26 C32        11.0725   12.0132  141.5184 C.3       1 V0L        -0.1030 
     27 HC1        17.7429   11.9353  136.4999 H         1 V0L         0.1196 
     28 HC9        21.1679   13.1716  137.5171 H         1 V0L         0.1617 
     29 HC10       22.6130   11.9731  139.1009 H         1 V0L         0.2203 
     30 HC13       18.0870   10.1925  138.0855 H         1 V0L         0.2239 
     31 HC14       18.7782    8.2207  139.8317 H         1 V0L         0.2781 
     32 HC15       21.0743    7.8186  141.2670 H         1 V0L         0.1617 
     33 H171       18.6931   13.2173  134.5800 H         1 V0L         0.0831 
     34 H172       20.2697   13.1919  135.3387 H         1 V0L         0.0831 
     35 H173       19.5205   11.6859  134.8357 H         1 V0L         0.0831 
     36 HC26       14.4814   15.6705  140.1036 H         1 V0L         0.1852 
     37 HC28       14.7357   10.8670  139.2770 H         1 V0L         0.1892 
     38 HC31       12.6633   14.2464  140.9107 H         1 V0L         0.2092 
     39 H321       10.9075   12.8657  142.1785 H         1 V0L         0.0880 
     40 H322       10.2876   11.9834  140.7626 H         1 V0L         0.0880 
     41 H323       11.0452   11.0982  142.1110 H         1 V0L         0.0880 
@<TRIPOS>BOND
     1    1    2 1    
     2    1   11 1    
     3    1   12 1    
     4    1   27 1    
     5    2    3 ar   
     6    2    7 ar   
     7    3    4 ar   
     8    3   28 1    
     9    4    5 ar   
    10    4   29 1    
    11    5    6 ar   
    12    5   10 ar   
    13    6    7 ar   
    14    6    8 ar   
    15    7   30 1    
    16    8    9 ar   
    17    8   31 1    
    18    9   10 ar   
    19    9   32 1    
    20   11   33 1    
    21   11   34 1    
    22   11   35 1    
    23   12   13 ar   
    24   12   16 ar   
    25   13   14 ar   
    26   13   18 ar   
    27   14   15 ar   
    28   14   17 ar   
    29   15   16 ar   
    30   17   20 ar   
    31   18   19 ar   
    32   19   20 ar   
    33   19   21 1    
    34   20   36 1    
    35   21   22 ar   
    36   21   25 ar   
    37   22   23 ar   
    38   22   37 1    
    39   23   24 ar   
    40   24   25 ar   
    41   24   26 1    
    42   25   38 1    
    43   26   39 1    
    44   26   40 1    
    45   26   41 1    
@<TRIPOS>SUBSTRUCTURE
     1 V0L         1 GROUP             0 A     ****    0 ROOT    
@<TRIPOS>MOLECULE
3CD8_ligand
46   50    1
SMALL
USER_CHARGES


@<TRIPOS>ATOM
      1 N1         16.2041   12.9956  138.3306 N.2       1 L5G        -0.3800 
      2 N3         18.2412   15.7567  137.4450 N.2       1 L5G        -0.3721 
      3 C4         14.3207   12.5426  139.8072 C.ar      1 L5G        -0.0678 
      4 C5         13.2065   12.9938  140.5350 C.ar      1 L5G        -0.0995 
      5 C6         12.2593   12.1066  141.0373 C.ar      1 L5G        -0.1260 
      6 C7         15.3348   13.5075  139.2506 C.ar      1 L5G         0.2025 
      7 C8         15.3939   14.8544  139.6470 C.ar      1 L5G        -0.2487 
      8 C10        17.2307   15.2154  138.1594 C.ar      1 L5G         0.2525 
      9 C13        19.3124   11.0148  138.0195 C.ar      1 L5G         0.3108 
     10 C15        21.4874   11.4831  138.9825 C.ar      1 L5G         0.1303 
     11 C17        20.1709    9.7084  139.9256 C.ar      1 L5G         0.3685 
     12 C20        17.8352    8.1989  140.0269 C.ar      1 L5G        -0.1677 
     13 C21        17.9650    9.1826  139.0505 C.ar      1 L5G        -0.1639 
     14 C22        19.4843    6.7209  142.9445 C.3       1 L5G         0.1217 
     15 O2         18.5881    6.9351  141.8610 O.3       1 L5G        -0.3382 
     16 C19        18.8445    7.9439  140.9529 C.ar      1 L5G         0.3078 
     17 C18        20.0295    8.6949  140.9014 C.ar      1 L5G        -0.4629 
     18 C16        19.1399    9.9736  138.9781 C.ar      1 L5G         0.0357 
     19 N5         21.3015   10.4889  139.8649 N.ar      1 L5G        -0.3260 
     20 C14        20.5019   11.7607  138.0436 C.ar      1 L5G        -0.3722 
     21 O1         18.2919   11.2108  137.1094 O.3       1 L5G        -0.3339 
     22 C12        18.3201   12.3039  136.1983 C.3       1 L5G         0.1616 
     23 C11        18.0879   13.6318  136.8955 C.ar      1 L5G        -0.2049 
     24 N2         17.1036   13.8602  137.8329 N.pl3     1 L5G         0.3670 
     25 N4         18.7703   14.7349  136.6769 N.2       1 L5G         0.0347 
     26 C9         16.3410   15.7269  139.1115 C.ar      1 L5G        -0.1487 
     27 C3         14.4436   11.1563  139.6007 C.ar      1 L5G        -0.0995 
     28 C2         13.4980   10.2641  140.0967 C.ar      1 L5G        -0.1260 
     29 C1         12.4087   10.7424  140.8161 C.ar      1 L5G        -0.1048 
     30 HC5        13.0309   14.0423  140.6983 H         1 L5G         0.1361 
     31 HC6        11.4105   12.4785  141.5920 H         1 L5G         0.1436 
     32 HC8        14.7134   15.2478  140.3724 H         1 L5G         0.2093 
     33 HC15       22.4189   12.0248  139.0604 H         1 L5G         0.2198 
     34 HC20       16.9238    7.6242  140.0729 H         1 L5G         0.1881 
     35 HC21       17.1589    9.3543  138.3527 H         1 L5G         0.2125 
     36 H221       19.1816    5.8285  143.4918 H         1 L5G         0.0614 
     37 H222       20.5105    6.5678  142.6167 H         1 L5G         0.0614 
     38 H223       19.4519    7.5570  143.6429 H         1 L5G         0.0614 
     39 HC18       20.8390    8.5206  141.5914 H         1 L5G         0.2126 
     40 HC14       20.6711   12.5646  137.3458 H         1 L5G         0.2061 
     41 H121       17.4926   12.1273  135.5123 H         1 L5G         0.0799 
     42 H122       19.2058   12.2686  135.5653 H         1 L5G         0.0799 
     43 HC9        16.3863   16.7593  139.4254 H         1 L5G         0.2225 
     44 HC3        15.2803   10.7527  139.0508 H         1 L5G         0.1361 
     45 HC2        13.6140    9.2033  139.9316 H         1 L5G         0.1436 
     46 HC1        11.6747   10.0529  141.2066 H         1 L5G         0.1430 
@<TRIPOS>BOND
     1    1    6 ar   
     2    1   24 ar   
     3    2    8 ar   
     4    2   25 ar   
     5    3    4 ar   
     6    3    6 1    
     7    3   27 ar   
     8    4    5 ar   
     9    4   30 1    
    10    5   29 ar   
    11    5   31 1    
    12    6    7 ar   
    13    7   26 ar   
    14    7   32 1    
    15    8   24 ar   
    16    8   26 ar   
    17    9   18 ar   
    18    9   20 ar   
    19    9   21 1    
    20   10   19 ar   
    21   10   20 ar   
    22   10   33 1    
    23   11   17 ar   
    24   11   18 ar   
    25   11   19 ar   
    26   12   13 ar   
    27   12   16 ar   
    28   12   34 1    
    29   13   18 ar   
    30   13   35 1    
    31   14   15 1    
    32   14   36 1    
    33   14   37 1    
    34   14   38 1    
    35   15   16 1    
    36   16   17 ar   
    37   17   39 1    
    38   20   40 1    
    39   21   22 1    
    40   22   23 1    
    41   22   41 1    
    42   22   42 1    
    43   23   24 ar   
    44   23   25 ar   
    45   26   43 1    
    46   27   28 ar   
    47   27   44 1    
    48   28   29 ar   
    49   28   45 1    
    50   29   46 1    
@<TRIPOS>SUBSTRUCTURE
     1 L5G         1 GROUP             0 A     ****    0 ROOT    
@<TRIPOS>MOLECULE
3A4P_ligand
45   47    1
SMALL
USER_CHARGES


@<TRIPOS>ATOM
      1 C1         18.0524    5.9684  147.0215 C.3       1 DFQ         0.0722 
      2 N2         18.7245    6.5794  145.8847 N.am      1 DFQ        -0.5892 
      3 C4         18.1806    6.7097  144.6652 C.2       1 DFQ         0.5179 
      4 O5         17.0523    6.3066  144.3761 O.2       1 DFQ        -0.5340 
      5 C6         19.0415    7.4074  143.7408 C.2       1 DFQ        -0.2244 
      6 C7         18.6055    7.8689  142.5486 C.2       1 DFQ        -0.0784 
      7 C8         19.4086    8.6551  141.5951 C.ar      1 DFQ        -0.0547 
      8 C9         18.7637    9.4131  140.6174 C.ar      1 DFQ        -0.1235 
      9 C10        19.5136   10.2696  139.7758 C.ar      1 DFQ         0.0778 
     10 C11        18.9188   11.0705  138.7756 C.ar      1 DFQ        -0.2619 
     11 C12        20.7991    8.7477  141.6728 C.ar      1 DFQ         0.0042 
     12 N13        21.5508    9.5624  140.8973 N.ar      1 DFQ        -0.2314 
     13 C14        20.9215   10.3407  139.9807 C.ar      1 DFQ         0.0902 
     14 C15        21.6819   11.2619  139.2298 C.ar      1 DFQ        -0.1386 
     15 C16        21.0649   12.0507  138.2649 C.ar      1 DFQ        -0.1294 
     16 C17        19.7005   11.9443  138.0051 C.ar      1 DFQ         0.1835 
     17 O18        19.2176   12.7201  136.9708 O.3       1 DFQ        -0.3805 
     18 C19        17.8637   12.5947  136.5346 C.3       1 DFQ         0.2743 
     19 C20        17.8062   13.0377  135.0668 C.3       1 DFQ        -0.2454 
     20 C21        16.8950   13.3740  137.4481 C.ar      1 DFQ        -0.0451 
     21 C22        17.1839   14.6940  137.8622 C.ar      1 DFQ         0.0610 
     22 CL23       18.5933   15.5403  137.3112 Cl        1 DFQ        -0.1067 
     23 C24        16.3181   15.3663  138.7314 C.ar      1 DFQ         0.1803 
     24 F25        16.6074   16.6169  139.1584 F         1 DFQ        -0.1621 
     25 C26        15.1472   14.7570  139.1681 C.ar      1 DFQ        -0.1472 
     26 C27        14.8343   13.4725  138.7377 C.ar      1 DFQ        -0.0996 
     27 C28        15.6959   12.7769  137.8919 C.ar      1 DFQ         0.0706 
     28 CL29       15.2178   11.1780  137.4267 Cl        1 DFQ        -0.1386 
     29 H1_1       18.7247    5.9467  147.8791 H         1 DFQ         0.0701 
     30 H1_2       17.1652    6.5397  147.2972 H         1 DFQ         0.0701 
     31 H1_3       17.7528    4.9446  146.7940 H         1 DFQ         0.0701 
     32 HN2        19.6649    6.9152  146.0452 H         1 DFQ         0.3034 
     33 HC6        20.0581    7.5760  144.0676 H         1 DFQ         0.1293 
     34 HC7        17.5840    7.6770  142.2469 H         1 DFQ         0.1534 
     35 HC9        17.6879    9.3922  140.5203 H         1 DFQ         0.1419 
     36 HC11       17.8527   10.9880  138.6362 H         1 DFQ         0.1384 
     37 HC12       21.3558    8.1705  142.3943 H         1 DFQ         0.1576 
     38 HC15       22.7444   11.3375  139.3976 H         1 DFQ         0.1570 
     39 HC16       21.6642   12.7385  137.6871 H         1 DFQ         0.1517 
     40 HC19       17.6202   11.5352  136.5210 H         1 DFQ         0.0582 
     41 H201       16.8325   12.8106  134.6415 H         1 DFQ         0.0805 
     42 H202       17.9875   14.1049  134.9456 H         1 DFQ         0.0805 
     43 H203       18.5461   12.5057  134.4683 H         1 DFQ         0.0805 
     44 HC26       14.4794   15.2840  139.8343 H         1 DFQ         0.1594 
     45 HC27       13.9146   13.0082  139.0578 H         1 DFQ         0.1567 
@<TRIPOS>BOND
     1    1    2 1    
     2    1   29 1    
     3    1   30 1    
     4    1   31 1    
     5    2    3 am   BACKBONE|DICT|INTERRES
     6    2   32 1    
     7    3    4 2    
     8    3    5 1    
     9    5    6 2    
    10    5   33 1    
    11    6    7 1    
    12    6   34 1    
    13    7    8 ar   
    14    7   11 ar   
    15    8    9 ar   
    16    8   35 1    
    17    9   10 ar   
    18    9   13 ar   
    19   10   16 ar   
    20   10   36 1    
    21   11   12 ar   
    22   11   37 1    
    23   12   13 ar   
    24   13   14 ar   
    25   14   15 ar   
    26   14   38 1    
    27   15   16 ar   
    28   15   39 1    
    29   16   17 1    
    30   17   18 1    
    31   18   19 1    
    32   18   20 1    
    33   18   40 1    
    34   19   41 1    
    35   19   42 1    
    36   19   43 1    
    37   20   21 ar   
    38   20   27 ar   
    39   21   22 1    
    40   21   23 ar   
    41   23   24 1    
    42   23   25 ar   
    43   25   26 ar   
    44   25   44 1    
    45   26   27 ar   
    46   26   45 1    
    47   27   28 1    
@<TRIPOS>SUBSTRUCTURE
     1 DFQ         1 GROUP             0 A     ****    0 ROOT    
@<TRIPOS>MOLECULE
5YA5_ligand
41   45    1
SMALL
USER_CHARGES


@<TRIPOS>ATOM
      1 CAA        20.3269    8.0207  141.0564 C.3       1 6TD         0.1375 
      2 OAP        21.0307    9.0762  140.4121 O.3       1 6TD        -0.3661 
      3 CAS        20.3565    9.8668  139.5026 C.ar      1 6TD         0.1620 
      4 CAG        21.0678   10.9381  138.9603 C.ar      1 6TD        -0.1810 
      5 CAE        20.4683   11.7882  138.0357 C.ar      1 6TD        -0.0782 
      6 CAF        19.0257    9.6548  139.1088 C.ar      1 6TD        -0.1810 
      7 CAD        18.4247   10.5041  138.1862 C.ar      1 6TD        -0.0782 
      8 CAR        19.1460   11.5684  137.6444 C.ar      1 6TD        -0.1333 
      9 CAK        18.4796   12.5030  136.6478 C.3       1 6TD        -0.0735 
     10 CAU        17.9751   13.7618  137.3159 C.ar      1 6TD         0.0977 
     11 NAL        18.4749   14.9702  137.1821 N.2       1 6TD        -0.2506 
     12 NAM        17.7079   15.8621  137.9248 N.2       1 6TD        -0.2278 
     13 CAY        16.7836   15.1440  138.5093 C.ar      1 6TD         0.1665 
     14 SAQ        15.4236   15.3475  139.5862 S.3       1 6TD         0.0880 
     15 NAZ        16.8916   13.8243  138.1713 N.pl3     1 6TD         0.1065 
     16 NAN        15.9907   12.9393  138.6780 N.2       1 6TD        -0.1000 
     17 CAV        15.1448   13.5988  139.4299 C.2       1 6TD        -0.0411 
     18 CAT        14.0228   12.9156  140.0623 C.ar      1 6TD        -0.0318 
     19 CAJ        13.7020   11.5669  140.0658 C.ar      1 6TD        -0.4216 
     20 CAW        12.4516   11.4039  140.7430 C.ar      1 6TD         0.2478 
     21 CAH        11.6233   10.3077  141.0294 C.ar      1 6TD        -0.2730 
     22 CAB        10.4214   10.5279  141.7012 C.ar      1 6TD        -0.1687 
     23 CAC        10.0403   11.8085  142.0910 C.ar      1 6TD        -0.1487 
     24 CAI        10.8412   12.9210  141.8390 C.ar      1 6TD        -0.2580 
     25 CAX        12.0457   12.7004  141.1641 C.ar      1 6TD         0.1168 
     26 NAO        13.0326   13.5704  140.7568 N.pl3     1 6TD        -0.1939 
     27 HAA1       20.9945    7.5158  141.7522 H         1 6TD         0.0415 
     28 HAA2       19.4797    8.3980  141.6314 H         1 6TD         0.0415 
     29 HAA3       19.9722    7.2794  140.3414 H         1 6TD         0.0415 
     30 HCAG       22.0916   11.1110  139.2594 H         1 6TD         0.1403 
     31 HCAE       21.0300   12.6178  137.6313 H         1 6TD         0.1409 
     32 HCAF       18.4418    8.8396  139.5076 H         1 6TD         0.1403 
     33 HCAD       17.3970   10.3351  137.8993 H         1 6TD         0.1409 
     34 HAK1       17.6569   11.9896  136.1486 H         1 6TD         0.1014 
     35 HAK2       19.1985   12.7461  135.8655 H         1 6TD         0.1014 
     36 HCAJ       14.2944   10.7941  139.5996 H         1 6TD         0.2413 
     37 HCAH       11.9019    9.3099  140.7254 H         1 6TD         0.1822 
     38 HCAB        9.7717    9.6928  141.9178 H         1 6TD         0.1539 
     39 HCAC        9.0982   11.9432  142.6024 H         1 6TD         0.1549 
     40 HCAI       10.5370   13.9025  142.1534 H         1 6TD         0.1733 
     41 HNAO       13.0575   14.5704  140.9139 H         1 6TD         0.2882 
@<TRIPOS>BOND
     1    1    2 1    
     2    1   27 1    
     3    1   28 1    
     4    1   29 1    
     5    2    3 1    
     6    3    4 ar   
     7    3    6 ar   
     8    4    5 ar   
     9    4   30 1    
    10    5    8 ar   
    11    5   31 1    
    12    6    7 ar   
    13    6   32 1    
    14    7    8 ar   
    15    7   33 1    
    16    8    9 1    
    17    9   10 1    
    18    9   34 1    
    19    9   35 1    
    20   10   11 ar   
    21   10   15 ar   
    22   11   12 ar   
    23   12   13 ar   
    24   13   14 1    
    25   13   15 ar   
    26   14   17 1    
    27   15   16 1    
    28   16   17 2    
    29   17   18 1    
    30   18   19 ar   
    31   18   26 ar   
    32   19   20 ar   
    33   19   36 1    
    34   20   21 ar   
    35   20   25 ar   
    36   21   22 ar   
    37   21   37 1    
    38   22   23 ar   
    39   22   38 1    
    40   23   24 ar   
    41   23   39 1    
    42   24   25 ar   
    43   24   40 1    
    44   25   26 ar   
    45   26   41 1    
@<TRIPOS>SUBSTRUCTURE
     1 6TD         1 GROUP             0 A     ****    0 ROOT    
@<TRIPOS>MOLECULE
3CCN_ligand
37   40    1
SMALL
USER_CHARGES


@<TRIPOS>ATOM
      1 N1         17.1191   13.9500  137.8849 N.pl3     1 LKG         0.3302 
      2 N3         18.0881   15.8894  137.3053 N.2       1 LKG        -0.3932 
      3 C4         14.4505   12.5891  139.9662 C.ar      1 LKG        -0.0493 
      4 C5         14.7733   11.2210  140.0266 C.ar      1 LKG        -0.1000 
      5 C6         13.8967   10.2979  140.5881 C.ar      1 LKG        -0.1300 
      6 C7         15.3810   13.5807  139.3283 C.ar      1 LKG         0.1556 
      7 C8         15.3230   14.9576  139.6051 C.ar      1 LKG        -0.2619 
      8 C10        17.1260   15.3347  138.0768 C.ar      1 LKG         0.2448 
      9 C13        19.2433   11.5192  137.5824 C.ar      1 LKG        -0.1316 
     10 C15        21.1831   11.1477  138.9719 C.ar      1 LKG        -0.1926 
     11 C17        19.2975    9.6362  139.0949 C.ar      1 LKG        -0.1926 
     12 C14        20.5199   11.8997  138.0070 C.ar      1 LKG        -0.0743 
     13 C16        20.5747   10.0115  139.5000 C.ar      1 LKG         0.2124 
     14 O1         21.2358    9.2530  140.4244 O.3       1 LKG        -0.5960 
     15 C18        18.6267   10.3978  138.1451 C.ar      1 LKG        -0.0743 
     16 C12        18.5227   12.3303  136.5131 C.3       1 LKG        -0.0707 
     17 C11        18.1434   13.7113  136.9988 C.ar      1 LKG        -0.1212 
     18 N2         16.2954   13.0598  138.4617 N.2       1 LKG        -0.3130 
     19 N4         18.7227   14.8429  136.6564 N.2       1 LKG        -0.0404 
     20 C9         16.1954   15.8530  138.9866 C.ar      1 LKG        -0.1527 
     21 C3         13.2188   12.9960  140.5033 C.ar      1 LKG        -0.1000 
     22 C2         12.3379   12.0773  141.0663 C.ar      1 LKG        -0.1300 
     23 C1         12.6808   10.7301  141.1066 C.ar      1 LKG        -0.1140 
     24 HC5        15.7135   10.8572  139.6370 H         1 LKG         0.1371 
     25 HC6        14.1641    9.2517  140.6272 H         1 LKG         0.1372 
     26 HC8        14.6055   15.3493  140.2998 H         1 LKG         0.1948 
     27 HC15       22.1684   11.4399  139.2992 H         1 LKG         0.1390 
     28 HC17       18.8209    8.7635  139.5175 H         1 LKG         0.1390 
     29 HC14       20.9970   12.7778  137.5979 H         1 LKG         0.1419 
     30 HO1        20.6711    8.5697  140.8036 H         1 LKG         0.4470 
     31 HC18       17.6264   10.1112  137.8625 H         1 LKG         0.1419 
     32 H121       17.6289   11.8092  136.1735 H         1 LKG         0.0997 
     33 H122       19.1641   12.3894  135.6346 H         1 LKG         0.0997 
     34 HC9        16.1591   16.9081  139.2077 H         1 LKG         0.2084 
     35 HC3        12.9109   14.0293  140.4655 H         1 LKG         0.1371 
     36 HC2        11.3936   12.4098  141.4718 H         1 LKG         0.1372 
     37 HC1        12.0043   10.0170  141.5538 H         1 LKG         0.1348 
@<TRIPOS>BOND
     1    1    8 ar   
     2    1   17 ar   
     3    1   18 ar   
     4    2    8 ar   
     5    2   19 ar   
     6    3    4 ar   
     7    3    6 1    
     8    3   21 ar   
     9    4    5 ar   
    10    4   24 1    
    11    5   23 ar   
    12    5   25 1    
    13    6    7 ar   
    14    6   18 ar   
    15    7   20 ar   
    16    7   26 1    
    17    8   20 ar   
    18    9   12 ar   
    19    9   15 ar   
    20    9   16 1    
    21   10   12 ar   
    22   10   13 ar   
    23   10   27 1    
    24   11   13 ar   
    25   11   15 ar   
    26   11   28 1    
    27   12   29 1    
    28   13   14 1    
    29   14   30 1    
    30   15   31 1    
    31   16   17 1    
    32   16   32 1    
    33   16   33 1    
    34   17   19 ar   
    35   20   34 1    
    36   21   22 ar   
    37   21   35 1    
    38   22   23 ar   
    39   22   36 1    
    40   23   37 1    
@<TRIPOS>SUBSTRUCTURE
     1 LKG         1 GROUP             0 A     ****    0 ROOT    
@<TRIPOS>MOLECULE
4DEH_ligand
44   48    1
SMALL
USER_CHARGES


@<TRIPOS>ATOM
      1 C18        18.5218   10.1464  138.1185 C.ar      1 0JK        -0.1373 
      2 C17        19.2259    9.3854  139.0730 C.ar      1 0JK         0.0375 
      3 C21        18.6825    8.2193  139.6660 C.ar      1 0JK        -0.1267 
      4 C20        19.4225    7.5376  140.6268 C.ar      1 0JK        -0.1855 
      5 C19        20.6831    8.0185  140.9655 C.ar      1 0JK         0.0127 
      6 N5         21.2419    9.1193  140.4068 N.ar      1 0JK        -0.2540 
      7 C16        20.5283    9.8058  139.4733 C.ar      1 0JK         0.1271 
      8 C15        21.0888   10.9698  138.8930 C.ar      1 0JK        -0.1705 
      9 C14        20.3727   11.6877  137.9364 C.ar      1 0JK        -0.0965 
     10 C13        19.0954   11.2822  137.5471 C.ar      1 0JK        -0.1215 
     11 C12        18.3012   12.0853  136.5241 C.3       1 0JK        -0.0236 
     12 N4         17.8521   13.3695  137.0479 N.pl3     1 0JK         0.2531 
     13 C10        16.8662   13.6333  137.9731 C.ar      1 0JK        -0.2351 
     14 C11        15.9185   12.7382  138.6041 C.2       1 0JK         0.4718 
     15 O1         15.7045   11.5734  138.2659 O.2       1 0JK        -0.5121 
     16 N3         18.4786   14.4939  136.6747 N.2       1 0JK        -0.1467 
     17 N2         17.8557   15.5334  137.3369 N.2       1 0JK        -0.1736 
     18 C9         16.9164   15.0084  138.0987 C.ar      1 0JK         0.0851 
     19 C8         15.9827   15.7124  139.0406 C.3       1 0JK        -0.1496 
     20 C7         15.6271   14.7009  140.1574 C.3       1 0JK         0.0021 
     21 N1         15.2084   13.3789  139.6021 N.am      1 0JK        -0.2291 
     22 C4         14.2288   12.6961  140.3647 C.ar      1 0JK        -0.0056 
     23 C3         14.4763   11.4372  140.9336 C.ar      1 0JK        -0.1172 
     24 C2         13.4662   10.7737  141.6243 C.ar      1 0JK        -0.1235 
     25 C1         12.2178   11.3734  141.7699 C.ar      1 0JK        -0.1235 
     26 C6         11.9749   12.6414  141.2508 C.ar      1 0JK        -0.1235 
     27 C5         12.9815   13.3020  140.5539 C.ar      1 0JK        -0.1172 
     28 HC18       17.5192    9.8473  137.8633 H         1 0JK         0.1425 
     29 HC21       17.7013    7.8715  139.3774 H         1 0JK         0.1401 
     30 HC20       19.0253    6.6524  141.1015 H         1 0JK         0.1449 
     31 HC19       21.2721    7.5157  141.7170 H         1 0JK         0.1593 
     32 HC15       22.0720   11.2980  139.1951 H         1 0JK         0.1551 
     33 HC14       20.8119   12.5786  137.5110 H         1 0JK         0.1567 
     34 H121       17.4190   11.5346  136.1935 H         1 0JK         0.1136 
     35 H122       18.8990   12.2441  135.6262 H         1 0JK         0.1136 
     36 H8_1       15.0739   16.0266  138.5287 H         1 0JK         0.1042 
     37 H8_2       16.4245   16.6115  139.4680 H         1 0JK         0.1042 
     38 H7_1       14.8434   15.1318  140.7650 H         1 0JK         0.0846 
     39 H7_2       16.4757   14.5485  140.8180 H         1 0JK         0.0846 
     40 HC3        15.4412   10.9631  140.8287 H         1 0JK         0.1384 
     41 HC2        13.6515    9.8002  142.0524 H         1 0JK         0.1349 
     42 HC1        11.4384   10.8569  142.3109 H         1 0JK         0.1327 
     43 HC6        11.0088   13.1068  141.3834 H         1 0JK         0.1349 
     44 HC5        12.7823   14.2811  140.1433 H         1 0JK         0.1384 
@<TRIPOS>BOND
     1    1    2 ar   
     2    1   10 ar   
     3    1   28 1    
     4    2    3 ar   
     5    2    7 ar   
     6    3    4 ar   
     7    3   29 1    
     8    4    5 ar   
     9    4   30 1    
    10    5    6 ar   
    11    5   31 1    
    12    6    7 ar   
    13    7    8 ar   
    14    8    9 ar   
    15    8   32 1    
    16    9   10 ar   
    17    9   33 1    
    18   10   11 1    
    19   11   12 1    
    20   11   34 1    
    21   11   35 1    
    22   12   13 ar   
    23   12   16 ar   
    24   13   14 1    
    25   13   18 ar   
    26   14   15 2    
    27   14   21 am   BACKBONE|DICT|INTERRES
    28   16   17 ar   
    29   17   18 ar   
    30   18   19 1    
    31   19   20 1    
    32   19   36 1    
    33   19   37 1    
    34   20   21 1    
    35   20   38 1    
    36   20   39 1    
    37   21   22 1    
    38   22   23 ar   
    39   22   27 ar   
    40   23   24 ar   
    41   23   40 1    
    42   24   25 ar   
    43   24   41 1    
    44   25   26 ar   
    45   25   42 1    
    46   26   27 ar   
    47   26   43 1    
    48   27   44 1    
@<TRIPOS>SUBSTRUCTURE
     1 0JK         1 GROUP             0 A     ****    0 ROOT    
