@<TRIPOS>MOLECULE
5vp0_ligand
50   52    1
SMALL
USER_CHARGES


@<TRIPOS>ATOM
      1 N1        -14.8228   24.4961   24.6574 N.ar      1 9GJ        -0.1222 
      2 N3        -16.3593   22.8442   25.5787 N.am      1 9GJ        -0.0516 
      3 C4        -13.6121   24.7814   27.1552 C.ar      1 9GJ        -0.1431 
      4 C5        -13.7587   25.3164   24.8276 C.ar      1 9GJ        -0.1037 
      5 C6        -16.9461   23.1748   21.1554 C.ar      1 9GJ        -0.0511 
      6 C7        -14.7146   23.9357   26.9957 C.ar      1 9GJ         0.0157 
      7 C8        -18.0648   25.2247   19.5805 C.ar      1 9GJ         0.0711 
      8 C10       -17.2565   25.5409   20.6773 C.ar      1 9GJ         0.1896 
      9 C13       -16.8335   22.3430   24.3903 C.2       1 9GJ         0.4677 
     10 C15       -11.2961   26.4943   27.2767 C.3       1 9GJ         0.1347 
     11 C17       -15.0483   21.4851   21.2192 C.3       1 9GJ         0.1267 
     12 C1        -17.7823   22.8719   20.0742 C.ar      1 9GJ        -0.1053 
     13 C2        -18.3307   23.8863   19.2921 C.ar      1 9GJ        -0.1027 
     14 C3        -16.7093   24.5229   21.4628 C.ar      1 9GJ        -0.1647 
     15 C9        -13.1132   25.4917   26.0496 C.ar      1 9GJ         0.1286 
     16 C11       -15.3125   23.8121   25.7324 C.ar      1 9GJ         0.0578 
     17 C12       -16.2754   22.4026   28.1191 C.2       1 9GJ         0.4750 
     18 C14       -17.0926   22.4015   26.8016 C.3       1 9GJ        -0.1669 
     19 C16       -12.8782   22.0708   20.4545 C.3       1 9GJ         0.1383 
     20 C18       -16.2941   22.0270   21.9467 C.3       1 9GJ         0.0632 
     21 C19       -19.8722   26.6637   19.0269 C.3       1 9GJ         0.6517 
     22 N2        -15.2012   23.2119   28.0822 N.am      1 9GJ        -0.3212 
     23 N4        -15.9756   22.3284   23.3487 N.am      1 9GJ        -0.3392 
     24 O1        -16.5826   21.7481   29.1127 O.2       1 9GJ        -0.4951 
     25 O2        -17.9577   21.8431   24.2805 O.2       1 9GJ        -0.5144 
     26 O3        -12.0301   26.3464   26.0696 O.3       1 9GJ        -0.3642 
     27 O4        -18.5504   26.2082   18.7508 O.3       1 9GJ        -0.3375 
     28 O5        -14.0226   22.4700   21.1933 O.3       1 9GJ        -0.4487 
     29 F1        -16.9788   26.8315   20.9692 F         1 9GJ        -0.1640 
     30 F2        -20.7636   25.6701   18.9971 F         1 9GJ        -0.1675 
     31 F3        -20.2044   27.5331   18.0745 F         1 9GJ        -0.1675 
     32 F4        -19.9271   27.2987   20.1970 F         1 9GJ        -0.1675 
     33 HC4       -13.1534   24.8737   28.1286 H         1 9GJ         0.1575 
     34 HC5       -13.4126   25.8367   23.9467 H         1 9GJ         0.1718 
     35 H151      -10.4825   27.2035   27.1242 H         1 9GJ         0.0462 
     36 H152      -11.9258   26.8784   28.0777 H         1 9GJ         0.0462 
     37 H153      -10.8559   25.5486   27.5925 H         1 9GJ         0.0462 
     38 H171      -15.3130   21.1870   20.2028 H         1 9GJ         0.0385 
     39 H172      -14.6769   20.5972   21.7352 H         1 9GJ         0.0385 
     40 HC1       -17.9945   21.8465   19.8167 H         1 9GJ         0.1529 
     41 HC2       -18.9522   23.6353   18.4471 H         1 9GJ         0.1560 
     42 HC3       -16.0683   24.7917   22.2882 H         1 9GJ         0.1454 
     43 H141      -17.5252   21.4080   26.6724 H         1 9GJ         0.1092 
     44 H142      -17.9304   23.0748   26.9705 H         1 9GJ         0.1092 
     45 H161      -12.1107   22.8419   20.5234 H         1 9GJ         0.0345 
     46 H162      -12.4549   21.1417   20.8383 H         1 9GJ         0.0345 
     47 H163      -13.1181   21.9321   19.3994 H         1 9GJ         0.0345 
     48 HC18      -17.0005   21.1994   21.9621 H         1 9GJ         0.1225 
     49 HN2       -14.7041   23.2768   28.9617 H         1 9GJ         0.2909 
     50 HN4       -15.0413   22.6765   23.5114 H         1 9GJ         0.2436 
@<TRIPOS>BOND
     1    1    4 ar   
     2    1   16 ar   
     3    2    9 am   BACKBONE|DICT|INTERRES
     4    2   16 1    
     5    2   18 1    
     6    3    6 ar   
     7    3   15 ar   
     8    3   33 1    
     9    4   15 ar   
    10    4   34 1    
    11    5   12 ar   
    12    5   14 ar   
    13    5   20 1    
    14    6   16 ar   
    15    6   22 1    
    16    7    8 ar   
    17    7   13 ar   
    18    7   27 1    
    19    8   14 ar   
    20    8   29 1    
    21    9   23 am   BACKBONE|DICT|INTERRES
    22    9   25 2    
    23   10   26 1    
    24   10   35 1    
    25   10   36 1    
    26   10   37 1    
    27   11   20 1    
    28   11   28 1    
    29   11   38 1    
    30   11   39 1    
    31   12   13 ar   
    32   12   40 1    
    33   13   41 1    
    34   14   42 1    
    35   15   26 1    
    36   17   18 1    
    37   17   22 am   BACKBONE|DICT|INTERRES
    38   17   24 2    
    39   18   43 1    
    40   18   44 1    
    41   19   28 1    
    42   19   45 1    
    43   19   46 1    
    44   19   47 1    
    45   20   23 1    
    46   20   48 1    
    47   21   27 1    
    48   21   30 1    
    49   21   31 1    
    50   21   32 1    
    51   22   49 1    
    52   23   50 1    
@<TRIPOS>SUBSTRUCTURE
     1 9GJ         1 GROUP             0 B     ****    0 ROOT    
@<TRIPOS>MOLECULE
5TZA_ligand
49   53    1
SMALL
USER_CHARGES


@<TRIPOS>ATOM
      1 C5        -16.9489   22.7614   27.0544 C.ar      1 7OG         0.6303 
      2 C8        -15.2559   23.8468   27.5483 C.ar      1 7OG         0.2590 
      3 C10       -15.5190   22.5952   23.5229 C.3       1 7OG        -0.0697 
      4 N12       -14.5882   24.1915   21.9289 N.am      1 7OG        -0.3567 
      5 C13       -15.6073   24.0449   22.9898 C.3       1 7OG         0.0266 
      6 C15       -14.6625   21.8392   21.2763 C.3       1 7OG        -0.1537 
      7 C20       -12.9613   26.6451   25.3558 C.ar      1 7OG        -0.0405 
      8 C21       -12.9447   28.0422   25.0565 C.ar      1 7OG        -0.0289 
      9 C22       -13.2580   28.4673   23.7465 C.ar      1 7OG        -0.1169 
     10 C24       -19.8480   20.9756   25.7221 C.3       1 7OG        -0.1267 
     11 C26       -12.2790   27.1535   27.6331 C.ar      1 7OG        -0.1249 
     12 C28       -12.5949   28.9658   26.0704 C.ar      1 7OG        -0.1186 
     13 C27       -12.2464   28.5122   27.3382 C.ar      1 7OG        -0.1200 
     14 C25       -12.6338   26.2200   26.6657 C.ar      1 7OG        -0.1133 
     15 C23       -13.5397   27.5348   22.7561 C.ar      1 7OG        -0.1038 
     16 C19       -13.2562   25.7206   24.3246 C.ar      1 7OG        -0.0859 
     17 C18       -13.5259   26.1642   23.0261 C.ar      1 7OG        -0.1433 
     18 C2        -17.6993   21.7412   24.6242 C.ar      1 7OG        -0.4262 
     19 C1        -16.4703   22.3970   24.7055 C.ar      1 7OG         0.0946 
     20 C3        -18.4899   21.6401   25.7711 C.ar      1 7OG         0.2109 
     21 C16       -13.6688   25.1941   21.8821 C.2       1 7OG         0.5494 
     22 C14       -15.6876   21.5647   22.3824 C.3       1 7OG        -0.1186 
     23 C11       -14.7364   23.2887   20.7674 C.3       1 7OG         0.0199 
     24 N7        -16.3521   23.3643   28.1077 N.2       1 7OG        -0.5786 
     25 N9        -15.0344   23.6068   26.2752 N.2       1 7OG        -0.5159 
     26 N4        -18.1272   22.1298   26.9876 N.2       1 7OG        -0.4857 
     27 N6        -16.1310   22.9066   25.9327 N.pl3     1 7OG         0.1581 
     28 O17       -12.9358   25.3756   20.9072 O.2       1 7OG        -0.5133 
     29 HC8       -14.5542   24.4470   28.1003 H         1 7OG         0.1596 
     30 HC10      -14.5275   22.4398   23.9523 H         1 7OG         0.1233 
     31 H131      -15.4833   24.7570   23.8017 H         1 7OG         0.0934 
     32 H132      -16.5908   24.2139   22.5505 H         1 7OG         0.0934 
     33 H151      -14.8314   21.1634   20.4388 H         1 7OG         0.0818 
     34 H152      -13.6549   21.6230   21.6343 H         1 7OG         0.0818 
     35 HC22      -13.2481   29.5219   23.5127 H         1 7OG         0.1375 
     36 H241      -19.8593   20.0803   26.3434 H         1 7OG         0.0885 
     37 H242      -20.6238   21.6556   26.0682 H         1 7OG         0.0885 
     38 H243      -20.1047   20.6882   24.7044 H         1 7OG         0.0885 
     39 HC26      -12.0398   26.8175   28.6263 H         1 7OG         0.1329 
     40 HC28      -12.5762   30.0239   25.8493 H         1 7OG         0.1344 
     41 HC27      -11.9656   29.2230   28.1013 H         1 7OG         0.1328 
     42 HC25      -12.6342   25.1663   26.9039 H         1 7OG         0.1339 
     43 HC23      -13.7414   27.8921   21.7554 H         1 7OG         0.1395 
     44 HC19      -13.2170   24.6642   24.5476 H         1 7OG         0.1392 
     45 HC2       -18.0410   21.3297   23.6953 H         1 7OG         0.2144 
     46 H141      -16.6858   21.6301   21.9531 H         1 7OG         0.0781 
     47 H142      -15.5374   20.5457   22.7357 H         1 7OG         0.0781 
     48 H111      -13.9922   23.4463   19.9849 H         1 7OG         0.0864 
     49 H112      -15.7187   23.4731   20.3380 H         1 7OG         0.0864 
@<TRIPOS>BOND
     1    1   24 ar   
     2    1   26 ar   
     3    1   27 ar   
     4    2   24 ar   
     5    2   25 ar   
     6    2   29 1    
     7    3    5 1    
     8    3   19 1    
     9    3   22 1    
    10    3   30 1    
    11    4    5 1    
    12    4   21 am   BACKBONE|DICT|INTERRES
    13    4   23 1    
    14    5   31 1    
    15    5   32 1    
    16    6   22 1    
    17    6   23 1    
    18    6   33 1    
    19    6   34 1    
    20    7    8 ar   
    21    7   14 ar   
    22    7   16 ar   
    23    8    9 ar   
    24    8   12 ar   
    25    9   15 ar   
    26    9   35 1    
    27   10   20 1    
    28   10   36 1    
    29   10   37 1    
    30   10   38 1    
    31   11   13 ar   
    32   11   14 ar   
    33   11   39 1    
    34   12   13 ar   
    35   12   40 1    
    36   13   41 1    
    37   14   42 1    
    38   15   17 ar   
    39   15   43 1    
    40   16   17 ar   
    41   16   44 1    
    42   17   21 1    
    43   18   19 ar   
    44   18   20 ar   
    45   18   45 1    
    46   19   27 ar   
    47   20   26 ar   
    48   21   28 2    
    49   22   46 1    
    50   22   47 1    
    51   23   48 1    
    52   23   49 1    
    53   25   27 ar   
@<TRIPOS>SUBSTRUCTURE
     1 7OG         1 GROUP             0 D     ****    0 ROOT    
@<TRIPOS>MOLECULE
5U7K_ligand
49   52    1
SMALL
USER_CHARGES


@<TRIPOS>ATOM
      1 N3        -15.9549   22.9003   24.7317 N.pl3     1 7Y1         0.2825 
      2 C6        -16.9957   22.5166   25.5977 C.ar      1 7Y1         0.3156 
      3 C9        -14.3224   21.7759   22.0560 C.ar      1 7Y1        -0.0622 
      4 C13       -14.8537   23.9442   26.5554 C.ar      1 7Y1        -0.2037 
      5 C20       -18.4236   25.7424   20.8275 C.ar      1 7Y1        -0.1306 
      6 C21       -19.2661   25.2766   19.8166 C.ar      1 7Y1        -0.0640 
      7 C16       -17.9187   23.2882   19.5979 C.ar      1 7Y1        -0.0975 
      8 C19       -19.0110   24.0516   19.1996 C.ar      1 7Y1        -0.1306 
      9 C26       -20.1488   26.9823   18.1658 C.3       1 7Y1        -0.1683 
     10 C27       -13.8208   26.2184   22.2620 C.3       1 7Y1        -0.1706 
     11 C25       -12.7205   25.8947   23.2751 C.3       1 7Y1        -0.1787 
     12 C23       -13.2544   25.2728   24.5674 C.3       1 7Y1         0.2016 
     13 O18       -13.9847   24.0915   24.2530 O.3       1 7Y1        -0.3604 
     14 C10       -14.8961   23.6510   25.1851 C.ar      1 7Y1         0.0269 
     15 N12       -15.8167   23.5562   27.4252 N.2       1 7Y1        -0.0683 
     16 C15       -16.8842   22.8696   26.9527 C.ar      1 7Y1        -0.2263 
     17 N7        -17.9263   21.8298   24.9091 N.2       1 7Y1        -0.4189 
     18 N4        -17.4759   21.7706   23.6078 N.2       1 7Y1        -0.0020 
     19 C1        -16.3145   22.3702   23.5044 C.ar      1 7Y1        -0.1167 
     20 C2        -15.5567   22.3959   22.2725 C.ar      1 7Y1        -0.1537 
     21 N8        -13.8912   21.9212   20.8286 N.2       1 7Y1        -0.2254 
     22 N11       -14.8358   22.6480   20.2200 N.pl3     1 7Y1         0.1181 
     23 C22       -14.6181   23.0354   18.8330 C.3       1 7Y1        -0.1073 
     24 C5        -15.8980   22.9560   21.0424 C.ar      1 7Y1        -0.0158 
     25 C14       -17.0810   23.7497   20.6155 C.ar      1 7Y1        -0.0524 
     26 C17       -17.3354   24.9746   21.2308 C.ar      1 7Y1        -0.0975 
     27 C24       -20.4619   26.1015   19.3769 C.3       1 7Y1        -0.0878 
     28 HC9       -13.7597   21.2186   22.7912 H         1 7Y1         0.1877 
     29 HC13      -14.0441   24.5144   26.9863 H         1 7Y1         0.1828 
     30 HC20      -18.6185   26.6882   21.3088 H         1 7Y1         0.1364 
     31 HC16      -17.7214   22.3454   19.1103 H         1 7Y1         0.1405 
     32 HC19      -19.6528   23.6975   18.4067 H         1 7Y1         0.1364 
     33 H261      -21.0064   27.6006   17.9161 H         1 7Y1         0.0628 
     34 H262      -19.3272   27.6590   18.3809 H         1 7Y1         0.0628 
     35 H263      -19.8836   26.3918   17.2877 H         1 7Y1         0.0628 
     36 H271      -13.3741   26.6617   21.3758 H         1 7Y1         0.0669 
     37 H272      -14.3441   25.3172   21.9443 H         1 7Y1         0.0669 
     38 H273      -14.5537   26.9143   22.6714 H         1 7Y1         0.0669 
     39 H251      -12.1839   26.8120   23.5155 H         1 7Y1         0.0842 
     40 H252      -11.9898   25.2258   22.8196 H         1 7Y1         0.0842 
     41 H231      -13.8803   26.0099   25.0728 H         1 7Y1         0.0438 
     42 H232      -12.4383   25.0337   25.2448 H         1 7Y1         0.0438 
     43 HC15      -17.6381   22.5870   27.6708 H         1 7Y1         0.2095 
     44 H221      -15.3827   23.7381   18.5031 H         1 7Y1         0.0880 
     45 H222      -13.6447   23.5171   18.7355 H         1 7Y1         0.0880 
     46 H223      -14.6501   22.1537   18.1971 H         1 7Y1         0.0880 
     47 HC17      -16.6858   25.3311   22.0143 H         1 7Y1         0.1405 
     48 H241      -20.8066   26.7260   20.2003 H         1 7Y1         0.0754 
     49 H242      -21.2928   25.4308   19.1535 H         1 7Y1         0.0754 
@<TRIPOS>BOND
     1    1    2 ar   
     2    1   14 ar   
     3    1   19 ar   
     4    2   16 ar   
     5    2   17 ar   
     6    3   20 ar   
     7    3   21 ar   
     8    3   28 1    
     9    4   14 ar   
    10    4   15 ar   
    11    4   29 1    
    12    5    6 ar   
    13    5   26 ar   
    14    5   30 1    
    15    6    8 ar   
    16    6   27 1    
    17    7    8 ar   
    18    7   25 ar   
    19    7   31 1    
    20    8   32 1    
    21    9   27 1    
    22    9   33 1    
    23    9   34 1    
    24    9   35 1    
    25   10   11 1    
    26   10   36 1    
    27   10   37 1    
    28   10   38 1    
    29   11   12 1    
    30   11   39 1    
    31   11   40 1    
    32   12   13 1    
    33   12   41 1    
    34   12   42 1    
    35   13   14 1    
    36   15   16 ar   
    37   16   43 1    
    38   17   18 ar   
    39   18   19 ar   
    40   19   20 1    
    41   20   24 ar   
    42   21   22 ar   
    43   22   23 1    
    44   22   24 ar   
    45   23   44 1    
    46   23   45 1    
    47   23   46 1    
    48   24   25 1    
    49   25   26 ar   
    50   26   47 1    
    51   27   48 1    
    52   27   49 1    
@<TRIPOS>SUBSTRUCTURE
     1 7Y1         1 GROUP             0 C     ****    0 ROOT    
@<TRIPOS>MOLECULE
4D08_ligand
60   64    1
SMALL
USER_CHARGES


@<TRIPOS>ATOM
      1 C32       -20.0941   26.8827   19.1538 C.3       1 Q2T        -0.1709 
      2 C31       -20.0851   25.3583   18.9745 C.3       1 Q2T        -0.1268 
      3 C30       -18.6637   24.7690   18.9841 C.3       1 Q2T        -0.1784 
      4 C29       -18.6426   23.2468   18.7459 C.3       1 Q2T         0.1941 
      5 O28       -17.3133   22.7701   18.5334 O.3       1 Q2T        -0.3717 
      6 C26       -16.4619   22.5965   19.6070 C.ar      1 Q2T         0.1175 
      7 C25       -15.1256   22.2991   19.3294 C.ar      1 Q2T        -0.0906 
      8 N24       -14.1916   22.0761   20.2865 N.ar      1 Q2T        -0.1822 
      9 C23       -14.5876   22.1337   21.5806 C.ar      1 Q2T        -0.0343 
     10 C27       -16.8409   22.6618   20.9587 C.ar      1 Q2T        -0.0915 
     11 C22       -15.9004   22.4224   21.9649 C.ar      1 Q2T        -0.0448 
     12 C9        -16.2933   22.3771   23.3992 C.ar      1 Q2T        -0.0785 
     13 N8        -17.2144   21.5442   23.8397 N.2       1 Q2T        -0.1194 
     14 N7        -17.2133   21.5298   25.2183 N.2       1 Q2T        -0.1427 
     15 C1        -16.2807   22.4252   25.6044 C.ar      1 Q2T        -0.0165 
     16 C6        -15.7990   22.8174   26.8619 C.ar      1 Q2T         0.0998 
     17 C14       -16.2870   22.2336   28.1705 C.3       1 Q2T        -0.1140 
     18 N5        -14.8339   23.7630   26.9925 N.2       1 Q2T        -0.4474 
     19 N2        -15.7173   23.0409   24.4769 N.pl3     1 Q2T         0.3644 
     20 C3        -14.8075   24.0455   24.5737 C.ar      1 Q2T        -0.1596 
     21 C13       -14.3494   24.8024   23.4619 C.ar      1 Q2T        -0.1156 
     22 C12       -13.4305   25.8358   23.6492 C.ar      1 Q2T        -0.0512 
     23 C11       -12.9498   26.1250   24.9261 C.ar      1 Q2T        -0.1328 
     24 C10       -13.4037   25.4173   26.0364 C.ar      1 Q2T        -0.0728 
     25 C4        -14.3532   24.3842   25.8808 C.ar      1 Q2T         0.1137 
     26 C15       -12.9693   26.6591   22.4541 C.3       1 Q2T         0.1434 
     27 N16       -11.6472   26.2520   21.9760 N.3       1 Q2T        -0.6902 
     28 C21       -11.6829   24.9509   21.2942 C.3       1 Q2T         0.0768 
     29 C20       -10.2779   24.5555   20.8011 C.3       1 Q2T         0.1318 
     30 O19        -9.7779   25.5635   19.9278 O.3       1 Q2T        -0.4481 
     31 C18        -9.6696   26.8252   20.5817 C.3       1 Q2T         0.1318 
     32 C17       -11.0472   27.2799   21.1153 C.3       1 Q2T         0.0768 
     33 H321      -21.1078   27.2785   19.1319 H         1 Q2T         0.0632 
     34 H322      -19.6522   27.1708   20.1082 H         1 Q2T         0.0632 
     35 H323      -19.5366   27.3777   18.3584 H         1 Q2T         0.0632 
     36 H311      -20.5763   25.1074   18.0334 H         1 Q2T         0.0659 
     37 H312      -20.6826   24.8979   19.7623 H         1 Q2T         0.0659 
     38 H301      -18.1763   25.0055   19.9305 H         1 Q2T         0.0821 
     39 H302      -18.0729   25.2556   18.2063 H         1 Q2T         0.0821 
     40 H291      -19.1990   23.0170   17.8404 H         1 Q2T         0.0370 
     41 H292      -19.1568   22.7008   19.5374 H         1 Q2T         0.0370 
     42 HC25      -14.7803   22.2296   18.3085 H         1 Q2T         0.1634 
     43 HC23      -13.8301   21.9163   22.3197 H         1 Q2T         0.1724 
     44 HC27      -17.8573   22.8786   21.2450 H         1 Q2T         0.1595 
     45 H141      -15.4590   21.7982   28.7314 H         1 Q2T         0.0921 
     46 H142      -16.7559   23.0069   28.7795 H         1 Q2T         0.0921 
     47 H143      -17.0222   21.4468   28.0023 H         1 Q2T         0.0921 
     48 HC13      -14.7287   24.6163   22.4713 H         1 Q2T         0.1528 
     49 HC11      -12.2350   26.9225   25.0656 H         1 Q2T         0.1392 
     50 HC10      -13.0608   25.6721   27.0276 H         1 Q2T         0.1576 
     51 H151      -12.9548   27.7076   22.7569 H         1 Q2T         0.0715 
     52 H152      -13.7015   26.5837   21.6496 H         1 Q2T         0.0715 
     53 H211      -12.3903   24.9853   20.4649 H         1 Q2T         0.0712 
     54 H212      -12.0589   24.1862   21.9690 H         1 Q2T         0.0712 
     55 H201      -10.3126   23.6091   20.2647 H         1 Q2T         0.0554 
     56 H202       -9.6107   24.4051   21.6508 H         1 Q2T         0.0554 
     57 H181       -9.2800   27.5562   19.8732 H         1 Q2T         0.0554 
     58 H182       -8.9470   26.7615   21.3964 H         1 Q2T         0.0554 
     59 H171      -10.9387   28.2066   21.6807 H         1 Q2T         0.0712 
     60 H172      -11.7160   27.5080   20.2836 H         1 Q2T         0.0712 
@<TRIPOS>BOND
     1    1    2 1    
     2    1   33 1    
     3    1   34 1    
     4    1   35 1    
     5    2    3 1    
     6    2   36 1    
     7    2   37 1    
     8    3    4 1    
     9    3   38 1    
    10    3   39 1    
    11    4    5 1    
    12    4   40 1    
    13    4   41 1    
    14    5    6 1    
    15    6    7 ar   
    16    6   10 ar   
    17    7    8 ar   
    18    7   42 1    
    19    8    9 ar   
    20    9   11 ar   
    21    9   43 1    
    22   10   11 ar   
    23   10   44 1    
    24   11   12 1    
    25   12   13 ar   
    26   12   19 ar   
    27   13   14 ar   
    28   14   15 ar   
    29   15   16 ar   
    30   15   19 ar   
    31   16   17 1    
    32   16   18 ar   
    33   17   45 1    
    34   17   46 1    
    35   17   47 1    
    36   18   25 ar   
    37   19   20 ar   
    38   20   21 ar   
    39   20   25 ar   
    40   21   22 ar   
    41   21   48 1    
    42   22   23 ar   
    43   22   26 1    
    44   23   24 ar   
    45   23   49 1    
    46   24   25 ar   
    47   24   50 1    
    48   26   27 1    
    49   26   51 1    
    50   26   52 1    
    51   27   28 1    
    52   27   32 1    
    53   28   29 1    
    54   28   53 1    
    55   28   54 1    
    56   29   30 1    
    57   29   55 1    
    58   29   56 1    
    59   30   31 1    
    60   31   32 1    
    61   31   57 1    
    62   31   58 1    
    63   32   59 1    
    64   32   60 1    
@<TRIPOS>SUBSTRUCTURE
     1 Q2T         1 GROUP             0 D     ****    0 ROOT    
@<TRIPOS>MOLECULE
5U7I_ligand
52   55    1
SMALL
USER_CHARGES


@<TRIPOS>ATOM
      1 N3        -14.5047   24.1322   25.7245 N.pl3     1 7XS        -0.3287 
      2 C4        -16.2075   22.8178   22.8274 C.3       1 7XS        -0.1316 
      3 N2        -15.7515   23.5645   27.6246 N.ar      1 7XS        -0.4697 
      4 C7        -17.7363   22.3701   26.2322 C.ar      1 7XS         0.3022 
      5 C6        -16.6618   22.9235   25.4896 C.ar      1 7XS        -0.1286 
      6 C9        -15.6673   23.5651   26.2656 C.ar      1 7XS         0.4489 
      7 C13       -13.3962   27.9218   24.1598 C.ar      1 7XS         0.1202 
      8 C20       -19.7889   21.0239   25.5523 C.3       1 7XS        -0.0905 
      9 C8        -16.8474   23.0038   28.1884 C.ar      1 7XS         0.2321 
     10 N5        -18.0887   21.9071   24.0728 N.2       1 7XS        -0.2969 
     11 C18       -13.0609   27.4919   22.8674 C.ar      1 7XS        -0.1435 
     12 C16       -13.1705   29.7718   22.0633 C.ar      1 7XS         0.1261 
     13 C19       -13.0942   32.0221   21.1892 C.3       1 7XS         0.1384 
     14 C1        -15.2624   20.4380   22.6188 C.3       1 7XS        -0.1688 
     15 C2        -14.9405   21.9409   22.6746 C.3       1 7XS        -0.0847 
     16 C3        -14.1263   22.3581   21.4372 C.3       1 7XS        -0.1688 
     17 C5        -16.9650   22.5811   24.1229 C.ar      1 7XS         0.0411 
     18 N1        -17.8808   22.3989   27.5583 N.ar      1 7XS        -0.4501 
     19 C10       -14.3261   24.9014   24.4940 C.3       1 7XS        -0.0588 
     20 C11       -13.2088   25.7071   25.1231 C.3       1 7XS         0.0861 
     21 C12       -13.4945   24.9493   26.4019 C.3       1 7XS        -0.0588 
     22 O1        -13.5096   27.0920   25.2577 O.3       1 7XS        -0.3701 
     23 C14       -13.6375   29.2744   24.3861 C.ar      1 7XS        -0.1435 
     24 C15       -13.5223   30.1975   23.3524 C.ar      1 7XS        -0.1455 
     25 C17       -12.9546   28.4135   21.8299 C.ar      1 7XS        -0.1455 
     26 O2        -13.0134   30.6164   20.9818 O.3       1 7XS        -0.3657 
     27 N4        -18.5673   21.7705   25.3189 N.pl3     1 7XS         0.0530 
     28 H4_1      -16.8513   22.6159   21.9707 H         1 7XS         0.0800 
     29 H4_2      -15.9728   23.8735   22.7130 H         1 7XS         0.0800 
     30 H201      -20.1913   20.6593   24.6090 H         1 7XS         0.0871 
     31 H202      -19.5738   20.1746   26.2018 H         1 7XS         0.0871 
     32 H203      -20.5235   21.6723   26.0278 H         1 7XS         0.0871 
     33 HC8       -16.9151   23.0517   29.2640 H         1 7XS         0.1574 
     34 HC18      -12.8728   26.4518   22.6512 H         1 7XS         0.1406 
     35 H191      -12.9118   32.5355   20.2454 H         1 7XS         0.0403 
     36 H192      -14.0825   32.3183   21.5438 H         1 7XS         0.0403 
     37 H193      -12.3425   32.3651   21.9016 H         1 7XS         0.0403 
     38 H1_1      -14.3549   19.8381   22.5355 H         1 7XS         0.0613 
     39 H1_2      -15.7813   20.1078   23.5179 H         1 7XS         0.0613 
     40 H1_3      -15.8965   20.2024   21.7640 H         1 7XS         0.0613 
     41 HC2       -14.3111   22.0934   23.5520 H         1 7XS         0.0762 
     42 H3_1      -13.2030   21.7836   21.3632 H         1 7XS         0.0613 
     43 H3_2      -14.6865   22.1960   20.5170 H         1 7XS         0.0613 
     44 H3_3      -13.8533   23.4126   21.4742 H         1 7XS         0.0613 
     45 H101      -15.1991   25.4964   24.2245 H         1 7XS         0.1034 
     46 H102      -13.9957   24.3084   23.6458 H         1 7XS         0.1034 
     47 HC11      -12.2091   25.6060   24.7036 H         1 7XS         0.0791 
     48 H121      -12.6596   24.3637   26.7887 H         1 7XS         0.1034 
     49 H122      -13.9057   25.5738   27.1973 H         1 7XS         0.1034 
     50 HC14      -13.9098   29.6101   25.3750 H         1 7XS         0.1406 
     51 HC15      -13.7096   31.2374   23.5740 H         1 7XS         0.1423 
     52 HC17      -12.6883   28.0744   20.8396 H         1 7XS         0.1423 
@<TRIPOS>BOND
     1    1    6 1    
     2    1   19 1    
     3    1   21 1    
     4    2   15 1    
     5    2   17 1    
     6    2   28 1    
     7    2   29 1    
     8    3    6 ar   
     9    3    9 ar   
    10    4    5 ar   
    11    4   18 ar   
    12    4   27 ar   
    13    5    6 ar   
    14    5   17 ar   
    15    7   11 ar   
    16    7   22 1    
    17    7   23 ar   
    18    8   27 1    
    19    8   30 1    
    20    8   31 1    
    21    8   32 1    
    22    9   18 ar   
    23    9   33 1    
    24   10   17 ar   
    25   10   27 ar   
    26   11   25 ar   
    27   11   34 1    
    28   12   24 ar   
    29   12   25 ar   
    30   12   26 1    
    31   13   26 1    
    32   13   35 1    
    33   13   36 1    
    34   13   37 1    
    35   14   15 1    
    36   14   38 1    
    37   14   39 1    
    38   14   40 1    
    39   15   16 1    
    40   15   41 1    
    41   16   42 1    
    42   16   43 1    
    43   16   44 1    
    44   19   20 1    
    45   19   45 1    
    46   19   46 1    
    47   20   21 1    
    48   20   22 1    
    49   20   47 1    
    50   21   48 1    
    51   21   49 1    
    52   23   24 ar   
    53   23   50 1    
    54   24   51 1    
    55   25   52 1    
@<TRIPOS>SUBSTRUCTURE
     1 7XS         1 GROUP             0 D     ****    0 ROOT    
@<TRIPOS>MOLECULE
5TZ3_ligand
51   55    1
SMALL
USER_CHARGES


@<TRIPOS>ATOM
      1 C5        -16.8408   23.1503   22.1401 C.3       1 7OM        -0.0181 
      2 C6        -16.1983   24.0166   21.0440 C.3       1 7OM        -0.1383 
      3 C7        -14.7959   23.4898   20.7291 C.3       1 7OM        -0.1154 
      4 N12       -15.9412   23.2755   28.0468 N.2       1 7OM        -0.5783 
      5 C13       -14.9361   23.8232   27.3871 C.ar      1 7OM         0.2338 
      6 C15       -17.9459   22.2215   24.6733 C.ar      1 7OM        -0.4446 
      7 C20       -13.5223   26.6643   24.0603 C.ar      1 7OM         0.0328 
      8 C21       -13.1058   26.9117   25.3694 C.ar      1 7OM        -0.1063 
      9 C22       -12.8926   28.2463   25.8131 C.ar      1 7OM        -0.0313 
     10 C24       -13.6330   29.0523   23.6216 C.ar      1 7OM        -0.1088 
     11 C26       -12.3835   28.5400   27.1028 C.ar      1 7OM        -0.1150 
     12 C28       -12.4896   30.9126   26.6412 C.ar      1 7OM        -0.1228 
     13 C27       -12.1880   29.8611   27.4993 C.ar      1 7OM        -0.1240 
     14 C29       -12.9813   30.6627   25.3650 C.ar      1 7OM        -0.1163 
     15 C25       -13.7831   27.7386   23.2060 C.ar      1 7OM        -0.1200 
     16 C23       -13.1791   29.3321   24.9267 C.ar      1 7OM        -0.0329 
     17 C11       -16.7338   22.8487   27.0390 C.ar      1 7OM         0.6291 
     18 C18       -16.6928   22.8413   24.6072 C.ar      1 7OM         0.4128 
     19 C16       -18.5079   21.9239   25.9132 C.ar      1 7OM         0.2100 
     20 C1        -13.4565   24.8489   22.4024 C.2       1 7OM         0.4651 
     21 C3        -14.7096   22.6650   23.1489 C.3       1 7OM        -0.0142 
     22 C2        -13.9530   23.4272   22.0187 C.3       1 7OM        -0.1096 
     23 C19       -19.8495   21.2260   25.9988 C.3       1 7OM        -0.1260 
     24 N14       -14.9657   23.8091   26.0734 N.2       1 7OM        -0.4611 
     25 N17       -17.9182   22.2288   27.0994 N.2       1 7OM        -0.4833 
     26 N10       -16.1204   23.1547   25.8204 N.pl3     1 7OM         0.1450 
     27 N4        -16.0769   23.1725   23.4004 N.pl3     1 7OM        -0.4564 
     28 N8        -13.7205   25.3370   23.6392 N.am      1 7OM        -0.4001 
     29 O9        -12.8262   25.4851   21.5535 O.2       1 7OM        -0.5120 
     30 H5_1      -16.9562   22.1187   21.8038 H         1 7OM         0.0671 
     31 H5_2      -17.8346   23.5410   22.3201 H         1 7OM         0.0671 
     32 H6_1      -16.1724   25.0611   21.3593 H         1 7OM         0.0861 
     33 H6_2      -16.8203   24.0134   20.1532 H         1 7OM         0.0861 
     34 H7_1      -14.2887   24.0427   19.9370 H         1 7OM         0.0824 
     35 H7_2      -14.8272   22.4936   20.2843 H         1 7OM         0.0824 
     36 HC13      -14.0991   24.2747   27.8966 H         1 7OM         0.1593 
     37 HC15      -18.4749   21.9526   23.7785 H         1 7OM         0.2139 
     38 HC21      -12.9027   26.0924   26.0450 H         1 7OM         0.1385 
     39 HC24      -13.8454   29.8647   22.9411 H         1 7OM         0.1371 
     40 HC26      -12.1466   27.7306   27.7793 H         1 7OM         0.1328 
     41 HC28      -12.3284   31.9306   26.9625 H         1 7OM         0.1320 
     42 HC27      -11.7966   30.0736   28.4820 H         1 7OM         0.1319 
     43 HC29      -13.1997   31.4841   24.6969 H         1 7OM         0.1338 
     44 HC25      -14.1077   27.5563   22.2004 H         1 7OM         0.1394 
     45 H3_1      -14.1146   22.6769   24.0585 H         1 7OM         0.0647 
     46 H3_2      -14.8220   21.6155   22.8692 H         1 7OM         0.0647 
     47 HC2       -13.0157   22.9184   21.7909 H         1 7OM         0.1272 
     48 H191      -19.9355   20.6370   26.9120 H         1 7OM         0.0882 
     49 H192      -20.6497   21.9637   25.9780 H         1 7OM         0.0882 
     50 H193      -19.9984   20.5547   25.1541 H         1 7OM         0.0882 
     51 HN8       -14.0836   24.7001   24.3353 H         1 7OM         0.2949 
@<TRIPOS>BOND
     1    1    2 1    
     2    1   27 1    
     3    1   30 1    
     4    1   31 1    
     5    2    3 1    
     6    2   32 1    
     7    2   33 1    
     8    3   22 1    
     9    3   34 1    
    10    3   35 1    
    11    4    5 ar   
    12    4   17 ar   
    13    5   24 ar   
    14    5   36 1    
    15    6   18 ar   
    16    6   19 ar   
    17    6   37 1    
    18    7    8 ar   
    19    7   15 ar   
    20    7   28 1    
    21    8    9 ar   
    22    8   38 1    
    23    9   11 ar   
    24    9   16 ar   
    25   10   15 ar   
    26   10   16 ar   
    27   10   39 1    
    28   11   13 ar   
    29   11   40 1    
    30   12   13 ar   
    31   12   14 ar   
    32   12   41 1    
    33   13   42 1    
    34   14   16 ar   
    35   14   43 1    
    36   15   44 1    
    37   17   25 ar   
    38   17   26 ar   
    39   18   26 ar   
    40   18   27 1    
    41   19   23 1    
    42   19   25 ar   
    43   20   22 1    
    44   20   28 am   BACKBONE|DICT|INTERRES
    45   20   29 2    
    46   21   22 1    
    47   21   27 1    
    48   21   45 1    
    49   21   46 1    
    50   22   47 1    
    51   23   48 1    
    52   23   49 1    
    53   23   50 1    
    54   24   26 ar   
    55   28   51 1    
@<TRIPOS>SUBSTRUCTURE
     1 7OM         1 GROUP             0 D     ****    0 ROOT    
@<TRIPOS>MOLECULE
5U7J_ligand
46   48    1
SMALL
USER_CHARGES


@<TRIPOS>ATOM
      1 N3        -15.9799   23.5671   25.0396 N.pl3     1 7XV         0.2701 
      2 C4        -16.0588   23.3294   22.4716 C.3       1 7XV        -0.1229 
      3 N2        -17.8223   22.3690   25.5451 N.2       1 7XV        -0.4065 
      4 C7        -14.8703   24.3365   25.3132 C.ar      1 7XV         0.0276 
      5 C6        -16.7858   23.0535   26.0729 C.ar      1 7XV         0.3137 
      6 C9        -16.3972   23.3142   27.3956 C.ar      1 7XV        -0.2244 
      7 C13       -13.5996   27.0785   21.1210 C.ar      1 7XV        -0.0904 
      8 C8        -14.5486   24.5317   26.6659 C.ar      1 7XV        -0.1995 
      9 C18       -13.1704   30.1302   24.8624 C.3       1 7XV         0.1386 
     10 C16       -14.0942   29.5807   22.2279 C.ar      1 7XV        -0.2004 
     11 C1        -15.1097   20.9531   22.1888 C.3       1 7XV        -0.1707 
     12 C2        -14.8174   22.4653   22.1452 C.3       1 7XV        -0.0824 
     13 C3        -14.2081   22.8603   20.7909 C.3       1 7XV        -0.1707 
     14 C5        -16.5857   23.1154   23.8796 C.ar      1 7XV        -0.1139 
     15 N1        -17.6562   22.4087   24.1742 N.2       1 7XV        -0.0352 
     16 N4        -15.2865   24.0340   27.6868 N.2       1 7XV        -0.0689 
     17 O1        -14.1911   24.8809   24.2390 O.3       1 7XV        -0.3731 
     18 C10       -13.0978   25.7509   24.5071 C.3       1 7XV         0.2061 
     19 C11       -12.4577   26.2422   23.1964 C.3       1 7XV        -0.1181 
     20 C12       -13.2158   27.3312   22.4401 C.ar      1 7XV        -0.1174 
     21 C14       -14.2012   28.0723   20.3567 C.ar      1 7XV        -0.1611 
     22 C15       -14.4700   29.3165   20.9146 C.ar      1 7XV        -0.0890 
     23 C17       -13.4417   28.6035   23.0024 C.ar      1 7XV         0.1656 
     24 O2        -12.9837   28.8418   24.2853 O.3       1 7XV        -0.3716 
     25 H9        -16.8417   23.1116   21.7431 H         1 7XV         0.0950 
     26 H8        -15.8257   24.3840   22.3198 H         1 7XV         0.0950 
     27 H11       -16.9685   22.9437   28.2332 H         1 7XV         0.2096 
     28 H16       -13.3977   26.1207   20.6671 H         1 7XV         0.1368 
     29 H10       -13.6955   25.1170   26.9725 H         1 7XV         0.1850 
     30 H21       -12.7617   30.1445   25.8700 H         1 7XV         0.0434 
     31 H20       -14.2284   30.3854   24.9374 H         1 7XV         0.0434 
     32 H22       -12.6538   30.9025   24.2907 H         1 7XV         0.0434 
     33 H19       -14.2968   30.5660   22.6185 H         1 7XV         0.1360 
     34 H1        -14.2095   20.3701   21.9915 H         1 7XV         0.0635 
     35 H3        -15.8570   20.6730   21.4461 H         1 7XV         0.0635 
     36 H2        -15.4812   20.6425   23.1651 H         1 7XV         0.0635 
     37 H4        -14.0622   22.6658   22.9049 H         1 7XV         0.0730 
     38 H6        -13.9617   23.9205   20.7623 H         1 7XV         0.0635 
     39 H5        -14.8917   22.6547   19.9663 H         1 7XV         0.0635 
     40 H7        -13.2864   22.3106   20.6080 H         1 7XV         0.0635 
     41 H12       -13.3993   26.5819   25.1443 H         1 7XV         0.0499 
     42 H13       -12.3507   25.1841   25.0607 H         1 7XV         0.0499 
     43 H14       -12.2636   25.3841   22.5512 H         1 7XV         0.0909 
     44 H15       -11.4829   26.6656   23.4103 H         1 7XV         0.0909 
     45 H17       -14.4403   27.8793   19.3253 H         1 7XV         0.1358 
     46 H18       -14.9483   30.0832   20.3238 H         1 7XV         0.1355 
@<TRIPOS>BOND
     1    1    4 ar   
     2    1    5 ar   
     3    1   14 ar   
     4    2   12 1    
     5    2   14 1    
     6    2   25 1    
     7    2   26 1    
     8    3    5 ar   
     9    3   15 ar   
    10    4    8 ar   
    11    4   17 1    
    12    5    6 ar   
    13    6   16 ar   
    14    6   27 1    
    15    7   20 ar   
    16    7   21 ar   
    17    7   28 1    
    18    8   16 ar   
    19    8   29 1    
    20    9   24 1    
    21    9   30 1    
    22    9   31 1    
    23    9   32 1    
    24   10   22 ar   
    25   10   23 ar   
    26   10   33 1    
    27   11   12 1    
    28   11   34 1    
    29   11   35 1    
    30   11   36 1    
    31   12   13 1    
    32   12   37 1    
    33   13   38 1    
    34   13   39 1    
    35   13   40 1    
    36   14   15 ar   
    37   17   18 1    
    38   18   19 1    
    39   18   41 1    
    40   18   42 1    
    41   19   20 1    
    42   19   43 1    
    43   19   44 1    
    44   20   23 ar   
    45   21   22 ar   
    46   21   45 1    
    47   22   46 1    
    48   23   24 1    
@<TRIPOS>SUBSTRUCTURE
     1 7XV         1 GROUP             0 D     ****    0 ROOT    
@<TRIPOS>MOLECULE
5TZW_ligand
43   46    1
SMALL
USER_CHARGES


@<TRIPOS>ATOM
      1 N3        -18.1736   22.1492   27.0244 N.2       1 7P4        -0.4678 
      2 C4        -16.9972   22.7818   27.1039 C.ar      1 7P4         0.6224 
      3 C6        -16.5498   22.5226   24.7334 C.ar      1 7P4         0.0840 
      4 C8        -15.2598   23.7789   27.6326 C.ar      1 7P4         0.2582 
      5 C10       -19.8715   20.9700   25.7468 C.3       1 7P4        -0.1276 
      6 C13       -14.7281   22.0277   21.2723 C.3       1 7P4         0.4721 
      7 C17       -13.6351   25.3392   22.0864 C.2       1 7P4         0.5542 
      8 C20       -13.2059   25.5483   24.5852 C.ar      1 7P4        -0.1204 
      9 C21       -12.9421   26.3163   25.7207 C.ar      1 7P4         0.1369 
     10 C22       -13.1058   28.3249   24.3912 C.ar      1 7P4        -0.1458 
     11 C26       -12.8841   27.7063   25.6207 C.ar      1 7P4         0.1541 
     12 C23       -13.3712   27.5555   23.2576 C.ar      1 7P4        -0.0878 
     13 C18       -13.4295   26.1579   23.3417 C.ar      1 7P4        -0.1436 
     14 C1        -17.7720   21.8580   24.6425 C.ar      1 7P4        -0.4214 
     15 C2        -18.5458   21.6986   25.7950 C.ar      1 7P4         0.2054 
     16 C12       -15.7472   21.7264   22.3903 C.3       1 7P4        -0.1854 
     17 C16       -15.6162   24.1842   23.0912 C.3       1 7P4         0.0277 
     18 C14       -14.7518   23.5145   20.8547 C.3       1 7P4        -0.1035 
     19 C11       -15.5764   22.7176   23.5694 C.3       1 7P4        -0.0643 
     20 N7        -16.3630   23.3004   28.1818 N.2       1 7P4        -0.5646 
     21 N9        -15.0755   23.6239   26.3422 N.2       1 7P4        -0.5158 
     22 N5        -16.1995   22.9869   25.9771 N.pl3     1 7P4         0.1568 
     23 N15       -14.5673   24.3458   22.0653 N.am      1 7P4        -0.3526 
     24 O19       -12.9345   25.6052   21.1064 O.2       1 7P4        -0.4938 
     25 F27       -12.5890   28.4567   26.7067 F         1 7P4        -0.1617 
     26 F28       -12.7107   25.7098   26.9073 F         1 7P4        -0.1632 
     27 F24       -13.5136   21.7320   21.7356 F         1 7P4        -0.2145 
     28 F25       -14.9741   21.2665   20.2091 F         1 7P4        -0.2145 
     29 HC8       -14.5126   24.3016   28.2012 H         1 7P4         0.1630 
     30 H101      -20.0968   20.6192   24.7404 H         1 7P4         0.0904 
     31 H102      -19.8523   20.1035   26.4071 H         1 7P4         0.0904 
     32 H103      -20.6823   21.6270   26.0549 H         1 7P4         0.0904 
     33 HC20      -13.2153   24.4736   24.6790 H         1 7P4         0.1587 
     34 HC22      -13.0555   29.4005   24.3119 H         1 7P4         0.1607 
     35 HC23      -13.5221   28.0545   22.3104 H         1 7P4         0.1553 
     36 HC1       -18.1114   21.4578   23.7093 H         1 7P4         0.2140 
     37 H121      -15.5941   20.7017   22.7346 H         1 7P4         0.1043 
     38 H122      -16.7487   21.8054   21.9722 H         1 7P4         0.1043 
     39 H161      -15.5111   24.8736   23.9257 H         1 7P4         0.0918 
     40 H162      -16.5851   24.3859   22.6353 H         1 7P4         0.0918 
     41 H141      -15.7192   23.7530   20.4172 H         1 7P4         0.1162 
     42 H142      -13.9912   23.6871   20.0925 H         1 7P4         0.1162 
     43 HC11      -14.5997   22.5098   24.0121 H         1 7P4         0.1288 
@<TRIPOS>BOND
     1    1    2 ar   
     2    1   15 ar   
     3    2   20 ar   
     4    2   22 ar   
     5    3   14 ar   
     6    3   19 1    
     7    3   22 ar   
     8    4   20 ar   
     9    4   21 ar   
    10    4   29 1    
    11    5   15 1    
    12    5   30 1    
    13    5   31 1    
    14    5   32 1    
    15    6   16 1    
    16    6   18 1    
    17    6   27 1    
    18    6   28 1    
    19    7   13 1    
    20    7   23 am   BACKBONE|DICT|INTERRES
    21    7   24 2    
    22    8    9 ar   
    23    8   13 ar   
    24    8   33 1    
    25    9   11 ar   
    26    9   26 1    
    27   10   11 ar   
    28   10   12 ar   
    29   10   34 1    
    30   11   25 1    
    31   12   13 ar   
    32   12   35 1    
    33   14   15 ar   
    34   14   36 1    
    35   16   19 1    
    36   16   37 1    
    37   16   38 1    
    38   17   19 1    
    39   17   23 1    
    40   17   39 1    
    41   17   40 1    
    42   18   23 1    
    43   18   41 1    
    44   18   42 1    
    45   19   43 1    
    46   21   22 ar   
@<TRIPOS>SUBSTRUCTURE
     1 7P4         1 GROUP             0 D     ****    0 ROOT    
@<TRIPOS>MOLECULE
4C1I_ligand
43   44    1
SMALL
USER_CHARGES


@<TRIPOS>ATOM
      1 C1        -16.0648   23.5763   26.6446 C.ar      1 EH9         0.5019 
      2 C2        -16.2071   23.2162   25.2855 C.ar      1 EH9         0.1786 
      3 C3        -15.1548   23.5230   24.4399 C.ar      1 EH9         0.2970 
      4 C5        -13.9910   24.4459   26.0973 C.ar      1 EH9         0.3952 
      5 C14       -16.7670   22.5180   23.3928 C.ar      1 EH9         0.1398 
      6 N4        -14.0024   24.1458   24.7915 N.ar      1 EH9        -0.5787 
      7 N6        -14.9243   24.2078   27.0258 N.ar      1 EH9        -0.5844 
      8 N13       -15.5420   23.0514   23.2202 N.pl3     1 EH9        -0.0758 
      9 N15       -17.2009   22.5967   24.6247 N.2       1 EH9        -0.5726 
     10 C34       -19.8258   28.2359   19.1033 C.3       1 EH9        -0.1718 
     11 N24       -17.0226   23.3087   27.6170 N.pl3     1 EH9        -0.8050 
     12 C31       -19.0509   26.9245   18.9550 C.3       1 EH9        -0.1301 
     13 C30       -18.0559   26.6809   20.1025 C.3       1 EH9        -0.1285 
     14 C28       -17.2645   25.3838   19.9023 C.3       1 EH9        -0.1299 
     15 C26       -16.2795   25.0650   21.0415 C.3       1 EH9        -0.1253 
     16 C21       -15.6281   23.6891   20.8107 C.3       1 EH9        -0.1469 
     17 O38       -14.6858   21.0770   20.5088 O.3       1 EH9        -0.6515 
     18 C40       -14.0199   20.6673   22.7482 C.3       1 EH9        -0.1895 
     19 C20       -14.7679   23.0969   21.9575 C.3       1 EH9        -0.0574 
     20 C36       -14.0879   21.7188   21.6191 C.3       1 EH9         0.1787 
     21 HC5       -13.1030   24.9474   26.4508 H         1 EH9         0.0701 
     22 HC14      -17.2934   22.0856   22.5595 H         1 EH9         0.1641 
     23 H341      -20.5311   28.3601   18.2821 H         1 EH9         0.0595 
     24 H342      -20.3941   28.2475   20.0316 H         1 EH9         0.0595 
     25 H343      -19.1620   29.0989   19.1045 H         1 EH9         0.0595 
     26 H241      -16.8446   23.5925   28.5710 H         1 EH9         0.3600 
     27 H242      -17.8793   22.8401   27.3586 H         1 EH9         0.3600 
     28 H311      -18.5250   26.9258   18.0000 H         1 EH9         0.0638 
     29 H312      -19.7595   26.0963   18.9047 H         1 EH9         0.0638 
     30 H301      -18.5971   26.6335   21.0483 H         1 EH9         0.0672 
     31 H302      -17.3641   27.5188   20.1838 H         1 EH9         0.0672 
     32 H281      -16.7215   25.4326   18.9570 H         1 EH9         0.0636 
     33 H282      -17.9760   24.5619   19.8019 H         1 EH9         0.0636 
     34 H261      -16.8176   25.0747   21.9893 H         1 EH9         0.0787 
     35 H262      -15.5133   25.8389   21.1130 H         1 EH9         0.0787 
     36 H211      -15.0267   23.7362   19.9013 H         1 EH9         0.0724 
     37 H212      -16.4299   22.9811   20.6105 H         1 EH9         0.0724 
     38 HO38      -15.5531   20.7616   20.7745 H         1 EH9         0.4274 
     39 H401      -13.5686   21.0868   23.6455 H         1 EH9         0.0724 
     40 H402      -15.0085   20.3018   23.0265 H         1 EH9         0.0724 
     41 H403      -13.4242   19.8009   22.4569 H         1 EH9         0.0724 
     42 HC20      -13.9698   23.8126   22.1616 H         1 EH9         0.1203 
     43 HC36      -13.0662   21.9339   21.3032 H         1 EH9         0.0673 
@<TRIPOS>BOND
     1    1    2 ar   
     2    1    7 ar   
     3    1   11 1    
     4    2    3 ar   
     5    2    9 ar   
     6    3    6 ar   
     7    3    8 ar   
     8    4    6 ar   
     9    4    7 ar   
    10    4   21 1    
    11    5    8 ar   
    12    5    9 ar   
    13    5   22 1    
    14    8   19 1    
    15   10   12 1    
    16   10   23 1    
    17   10   24 1    
    18   10   25 1    
    19   11   26 1    
    20   11   27 1    
    21   12   13 1    
    22   12   28 1    
    23   12   29 1    
    24   13   14 1    
    25   13   30 1    
    26   13   31 1    
    27   14   15 1    
    28   14   32 1    
    29   14   33 1    
    30   15   16 1    
    31   15   34 1    
    32   15   35 1    
    33   16   19 1    
    34   16   36 1    
    35   16   37 1    
    36   17   20 1    
    37   17   38 1    
    38   18   20 1    
    39   18   39 1    
    40   18   40 1    
    41   18   41 1    
    42   19   20 1    
    43   19   42 1    
    44   20   43 1    
@<TRIPOS>SUBSTRUCTURE
     1 EH9         1 GROUP             0 C     ****    0 ROOT    
@<TRIPOS>MOLECULE
5u7d_ligand
67   70    1
SMALL
USER_CHARGES


@<TRIPOS>ATOM
      1 CAB       -12.8739   27.1649   21.9230 C.3       1 19F         0.1358 
      2 OAW       -12.7175   28.1178   22.9677 O.3       1 19F        -0.3472 
      3 CBC       -12.6228   27.6772   24.2755 C.ar      1 19F         0.1356 
      4 CAN       -12.7185   26.3258   24.6466 C.ar      1 19F        -0.1653 
      5 CBB       -12.4391   28.6505   25.2692 C.ar      1 19F         0.1463 
      6 OAV       -12.4242   29.9738   24.8676 O.3       1 19F        -0.3481 
      7 CAA       -12.4400   31.0013   25.8540 C.3       1 19F         0.1359 
      8 CAM       -12.2887   28.2467   26.6053 C.ar      1 19F        -0.1745 
      9 CAL       -12.3901   26.9044   26.9601 C.ar      1 19F        -0.1044 
     10 CAY       -12.6372   25.9382   25.9868 C.ar      1 19F        -0.1049 
     11 CAR       -12.8228   24.4773   26.3811 C.3       1 19F        -0.0666 
     12 CBA       -14.2245   23.9462   26.1153 C.ar      1 19F         0.1823 
     13 NAU       -15.1054   23.8765   27.1720 N.pl3     1 19F        -0.3555 
     14 CBE       -16.3917   23.4101   27.1683 C.ar      1 19F         0.4829 
     15 OAE       -17.0638   23.3761   28.1947 O.2       1 19F        -0.4896 
     16 NAT       -14.5614   23.5859   24.9241 N.2       1 19F        -0.4783 
     17 NBI       -15.8577   23.1072   24.8019 N.pl3     1 19F         0.5335 
     18 CBF       -16.7792   22.9877   25.8247 C.ar      1 19F        -0.3160 
     19 CAZ       -17.9135   22.4356   25.2439 C.ar      1 19F         0.0777 
     20 CAC       -19.2283   22.0513   25.8799 C.3       1 19F        -0.1815 
     21 NAS       -17.7160   22.2304   23.9511 N.2       1 19F        -0.1808 
     22 CBD       -16.4863   22.6078   23.6847 C.ar      1 19F        -0.0189 
     23 CBH       -15.8495   22.4903   22.2972 C.3       1 19F        -0.0879 
     24 CBG       -14.5121   21.6924   22.2902 C.3       1 19F         0.1705 
     25 CAD       -14.5279   20.3931   23.1057 C.3       1 19F        -0.1873 
     26 OAF       -14.1771   21.3265   20.9669 O.3       1 19F        -0.6574 
     27 CAQ       -15.6839   23.8849   21.6425 C.3       1 19F        -0.1180 
     28 CAO       -17.0108   24.5485   21.2416 C.3       1 19F        -0.1280 
     29 CAP       -16.8043   25.8133   20.3912 C.3       1 19F        -0.0841 
     30 CAX       -18.1037   26.4183   19.8823 C.ar      1 19F        -0.0795 
     31 CAJ       -18.9856   27.0099   20.7845 C.ar      1 19F        -0.1242 
     32 CAH       -20.1454   27.6223   20.3242 C.ar      1 19F        -0.1283 
     33 CAG       -20.4268   27.6393   18.9609 C.ar      1 19F        -0.1323 
     34 CAI       -19.5607   27.0353   18.0531 C.ar      1 19F        -0.1283 
     35 CAK       -18.4017   26.4165   18.5174 C.ar      1 19F        -0.1242 
     36 H1        -12.0837   26.4136   21.9341 H         1 19F         0.0411 
     37 H2        -13.8439   26.6691   21.9801 H         1 19F         0.0411 
     38 H3        -12.8142   27.6763   20.9650 H         1 19F         0.0411 
     39 H4        -12.8845   25.5600   23.9042 H         1 19F         0.1328 
     40 H5        -12.4835   31.9732   25.3628 H         1 19F         0.0419 
     41 H6        -13.3156   30.9187   26.5001 H         1 19F         0.0419 
     42 H7        -11.5402   30.9838   26.4696 H         1 19F         0.0419 
     43 H8        -12.1144   28.9678   27.3880 H         1 19F         0.1439 
     44 H9        -12.3059   26.6238   27.9996 H         1 19F         0.1432 
     45 H10       -12.5645   24.3371   27.4305 H         1 19F         0.1036 
     46 H11       -12.0956   23.8776   25.8360 H         1 19F         0.1036 
     47 H12       -14.7754   24.1890   28.0761 H         1 19F         0.3023 
     48 H13       -19.6029   21.1069   25.4883 H         1 19F         0.0814 
     49 H14       -19.1308   21.9246   26.9552 H         1 19F         0.0814 
     50 H15       -19.9993   22.8040   25.7184 H         1 19F         0.0814 
     51 H16       -16.5424   21.9228   21.6716 H         1 19F         0.1075 
     52 H17       -13.7101   22.3256   22.6661 H         1 19F         0.0672 
     53 H18       -15.3432   19.7456   22.7928 H         1 19F         0.0699 
     54 H19       -13.5978   19.8319   23.0039 H         1 19F         0.0699 
     55 H20       -14.6607   20.6065   24.1638 H         1 19F         0.0699 
     56 H21       -14.7413   20.5903   20.7153 H         1 19F         0.4208 
     57 H22       -15.1300   24.5488   22.3081 H         1 19F         0.0716 
     58 H23       -15.0652   23.7977   20.7515 H         1 19F         0.0716 
     59 H24       -17.5715   24.7926   22.1419 H         1 19F         0.0766 
     60 H25       -17.6203   23.8361   20.6871 H         1 19F         0.0766 
     61 H26       -16.2743   26.5719   20.9698 H         1 19F         0.0711 
     62 H27       -16.1547   25.5861   19.5464 H         1 19F         0.0711 
     63 H28       -18.7652   27.0020   21.8412 H         1 19F         0.1294 
     64 H29       -20.8124   28.0902   21.0285 H         1 19F         0.1287 
     65 H30       -21.3234   28.1253   18.6068 H         1 19F         0.1280 
     66 H31       -19.7839   27.0505   16.9958 H         1 19F         0.1287 
     67 H32       -17.7251   25.9593   17.8126 H         1 19F         0.1294 
@<TRIPOS>BOND
     1    1    2 1    
     2    1   36 1    
     3    1   37 1    
     4    1   38 1    
     5    2    3 1    
     6    3    4 ar   
     7    3    5 ar   
     8    4   10 ar   
     9    4   39 1    
    10    5    6 1    
    11    5    8 ar   
    12    6    7 1    
    13    7   40 1    
    14    7   41 1    
    15    7   42 1    
    16    8    9 ar   
    17    8   43 1    
    18    9   10 ar   
    19    9   44 1    
    20   10   11 1    
    21   11   12 1    
    22   11   45 1    
    23   11   46 1    
    24   12   13 ar   
    25   12   16 ar   
    26   13   14 ar   
    27   13   47 1    
    28   14   15 2    
    29   14   18 ar   
    30   16   17 ar   
    31   17   18 ar   
    32   17   22 ar   
    33   18   19 ar   
    34   19   20 1    
    35   19   21 ar   
    36   20   48 1    
    37   20   49 1    
    38   20   50 1    
    39   21   22 ar   
    40   22   23 1    
    41   23   24 1    
    42   23   27 1    
    43   23   51 1    
    44   24   25 1    
    45   24   26 1    
    46   24   52 1    
    47   25   53 1    
    48   25   54 1    
    49   25   55 1    
    50   26   56 1    
    51   27   28 1    
    52   27   57 1    
    53   27   58 1    
    54   28   29 1    
    55   28   59 1    
    56   28   60 1    
    57   29   30 1    
    58   29   61 1    
    59   29   62 1    
    60   30   31 ar   
    61   30   35 ar   
    62   31   32 ar   
    63   31   63 1    
    64   32   33 ar   
    65   32   64 1    
    66   33   34 ar   
    67   33   65 1    
    68   34   35 ar   
    69   34   66 1    
    70   35   67 1    
@<TRIPOS>SUBSTRUCTURE
     1 19F         1 GROUP             0 A     ****    0 ROOT    
