@<TRIPOS>MOLECULE
5vp0_ligand
50   52    1
SMALL
USER_CHARGES


@<TRIPOS>ATOM
      1 N1        -15.7275   25.0491   25.4538 N.ar      1 9GJ        -0.5354 
      2 N3        -16.7877   23.0602   26.2482 N.am      1 9GJ        -0.4128 
      3 C4        -13.3574   24.3554   26.7323 C.ar      1 9GJ        -0.2587 
      4 C5        -14.6158   25.7714   25.2436 C.ar      1 9GJ         0.0460 
      5 C6        -17.2417   23.5578   21.4654 C.ar      1 9GJ         0.0100 
      6 C7        -14.5149   23.5926   26.9333 C.ar      1 9GJ         0.0814 
      7 C8        -17.9953   24.9951   19.1826 C.ar      1 9GJ         0.2709 
      8 C10       -16.8090   25.3042   19.8467 C.ar      1 9GJ         0.1524 
      9 C13       -17.2473   22.4577   25.0333 C.2       1 9GJ         0.7684 
     10 C15       -10.9815   25.8727   26.0277 C.3       1 9GJ         0.0094 
     11 C17       -15.2352   22.4827   22.6195 C.3       1 9GJ        -0.1878 
     12 C1        -18.4568   23.2857   20.8209 C.ar      1 9GJ        -0.1796 
     13 C2        -18.8315   23.9974   19.6755 C.ar      1 9GJ        -0.3001 
     14 C3        -16.4343   24.5957   20.9740 C.ar      1 9GJ        -0.1648 
     15 C9        -13.3930   25.4383   25.8432 C.ar      1 9GJ         0.2607 
     16 C11       -15.6802   23.9554   26.2271 C.ar      1 9GJ         0.4633 
     17 C12       -15.6657   21.7708   28.1100 C.2       1 9GJ         0.5885 
     18 C14       -16.9743   22.2896   27.4904 C.3       1 9GJ        -0.0751 
     19 C16       -13.1544   23.6808   23.0420 C.3       1 9GJ        -0.0942 
     20 C18       -16.7680   22.6908   22.6318 C.3       1 9GJ         0.3530 
     21 C19       -19.4736   26.1219   17.6332 C.3       1 9GJ         0.5758 
     22 N2        -14.5239   22.4676   27.7677 N.am      1 9GJ        -0.4396 
     23 N4        -17.1418   23.2849   23.9408 N.am      1 9GJ        -0.7236 
     24 O1        -15.6528   20.8128   28.9018 O.2       1 9GJ        -0.6062 
     25 O2        -17.6969   21.2877   25.0121 O.2       1 9GJ        -0.5997 
     26 O3        -12.3054   26.1934   25.4481 O.3       1 9GJ        -0.3877 
     27 O4        -18.2117   25.6898   17.9571 O.3       1 9GJ        -0.3410 
     28 O5        -14.6214   23.7658   23.0005 O.3       1 9GJ        -0.1904 
     29 F1        -16.0039   26.2976   19.3577 F         1 9GJ        -0.1603 
     30 F2        -20.3606   25.0732   17.5018 F         1 9GJ        -0.1732 
     31 F3        -19.3875   26.7644   16.4464 F         1 9GJ        -0.1381 
     32 F4        -19.9844   26.9676   18.5760 F         1 9GJ        -0.1597 
     33 HC4       -12.4428   24.0722   27.2384 H         1 9GJ         0.1993 
     34 HC5       -14.6634   26.6136   24.5647 H         1 9GJ         0.1233 
     35 H151      -10.2946   26.5835   25.5663 H         1 9GJ         0.1111 
     36 H152      -10.9863   26.0070   27.1153 H         1 9GJ         0.0837 
     37 H153      -10.6851   24.8477   25.7791 H         1 9GJ         0.0746 
     38 H171      -14.9016   22.1589   21.6250 H         1 9GJ         0.0991 
     39 H172      -14.9722   21.7128   23.3584 H         1 9GJ         0.1159 
     40 HC1       -19.1016   22.4946   21.1866 H         1 9GJ         0.1689 
     41 HC2       -19.7462   23.7671   19.1526 H         1 9GJ         0.2182 
     42 HC3       -15.5033   24.8210   21.4742 H         1 9GJ         0.1353 
     43 H141      -17.5798   21.4181   27.2358 H         1 9GJ         0.1005 
     44 H142      -17.4888   22.8968   28.2473 H         1 9GJ         0.1200 
     45 H161      -12.7996   24.6554   23.3812 H         1 9GJ         0.0819 
     46 H162      -12.8306   22.9116   23.7535 H         1 9GJ         0.0886 
     47 H163      -12.7404   23.4531   22.0526 H         1 9GJ         0.0860 
     48 HC18      -17.2496   21.7101   22.5772 H         1 9GJ         0.0377 
     49 HN2       -13.6477   22.1623   28.2071 H         1 9GJ         0.3767 
     50 HN4       -16.7396   24.2163   24.1276 H         1 9GJ         0.3278 
@<TRIPOS>BOND
     1    1    4 ar   
     2    1   16 ar   
     3    2    9 am   BACKBONE|DICT|INTERRES
     4    2   16 1    
     5    2   18 1    
     6    3    6 ar   
     7    3   15 ar   
     8    3   33 1    
     9    4   15 ar   
    10    4   34 1    
    11    5   12 ar   
    12    5   14 ar   
    13    5   20 1    
    14    6   16 ar   
    15    6   22 1    
    16    7    8 ar   
    17    7   13 ar   
    18    7   27 1    
    19    8   14 ar   
    20    8   29 1    
    21    9   23 am   BACKBONE|DICT|INTERRES
    22    9   25 2    
    23   10   26 1    
    24   10   35 1    
    25   10   36 1    
    26   10   37 1    
    27   11   20 1    
    28   11   28 1    
    29   11   38 1    
    30   11   39 1    
    31   12   13 ar   
    32   12   40 1    
    33   13   41 1    
    34   14   42 1    
    35   15   26 1    
    36   17   18 1    
    37   17   22 am   BACKBONE|DICT|INTERRES
    38   17   24 2    
    39   18   43 1    
    40   18   44 1    
    41   19   28 1    
    42   19   45 1    
    43   19   46 1    
    44   19   47 1    
    45   20   23 1    
    46   20   48 1    
    47   21   27 1    
    48   21   30 1    
    49   21   31 1    
    50   21   32 1    
    51   22   49 1    
    52   23   50 1    
@<TRIPOS>SUBSTRUCTURE
     1 9GJ         1 GROUP             0       ****    0 ROOT    
@<TRIPOS>MOLECULE
5TZA_ligand
49   53    1
SMALL
USER_CHARGES


@<TRIPOS>ATOM
      1 C5        -17.2337   22.9932   27.0274 C.ar      1 7OG         0.8890 
      2 C8        -15.7260   24.4491   27.5097 C.ar      1 7OG         0.4519 
      3 C10       -15.4815   22.6521   23.6562 C.3       1 7OG         0.3619 
      4 N12       -14.6656   24.2634   21.9338 N.am      1 7OG        -0.1870 
      5 C13       -15.6510   24.0783   23.0284 C.3       1 7OG        -0.1847 
      6 C15       -14.5952   21.8701   21.3997 C.3       1 7OG        -0.0873 
      7 C20       -12.8578   26.4995   25.2938 C.ar      1 7OG         0.1577 
      8 C21       -12.6066   27.8894   25.0295 C.ar      1 7OG         0.1446 
      9 C22       -12.7376   28.3657   23.6889 C.ar      1 7OG        -0.2366 
     10 C24       -19.5617   20.4296   25.7920 C.3       1 7OG        -0.4082 
     11 C26       -12.3334   26.8498   27.6474 C.ar      1 7OG        -0.1109 
     12 C28       -12.2250   28.7357   26.1117 C.ar      1 7OG        -0.2450 
     13 C27       -12.0951   28.2284   27.3892 C.ar      1 7OG        -0.1055 
     14 C25       -12.7027   26.0043   26.6224 C.ar      1 7OG        -0.2115 
     15 C23       -13.1170   27.5161   22.6753 C.ar      1 7OG        -0.1424 
     16 C19       -13.2628   25.6514   24.2254 C.ar      1 7OG        -0.2379 
     17 C18       -13.4239   26.1507   22.9469 C.ar      1 7OG        -0.0145 
     18 C2        -17.5529   21.5574   24.7395 C.ar      1 7OG        -0.5127 
     19 C1        -16.4880   22.4331   24.7664 C.ar      1 7OG         0.0273 
     20 C3        -18.4225   21.4149   25.8624 C.ar      1 7OG         0.6916 
     21 C16       -13.7720   25.2924   21.7635 C.2       1 7OG         0.5179 
     22 C14       -15.6017   21.5868   22.5388 C.3       1 7OG        -0.2357 
     23 C11       -14.8176   23.2833   20.8279 C.3       1 7OG        -0.0478 
     24 N7        -16.8390   23.8237   28.0210 N.2       1 7OG        -0.8313 
     25 N9        -15.3506   24.0962   26.2573 N.2       1 7OG        -0.5313 
     26 N4        -18.2656   22.1264   26.9896 N.2       1 7OG        -0.8112 
     27 N6        -16.3524   23.1409   25.9353 N.pl3     1 7OG         0.0878 
     28 O17       -13.2331   25.5200   20.6430 O.2       1 7OG        -0.6195 
     29 HC8       -15.1643   25.1845   28.0604 H         1 7OG         0.0994 
     30 HC10      -14.4804   22.5976   24.1040 H         1 7OG         0.0308 
     31 H131      -15.5321   24.8499   23.7853 H         1 7OG         0.1029 
     32 H132      -16.6585   24.1443   22.5957 H         1 7OG         0.1187 
     33 H151      -14.7222   21.1288   20.6027 H         1 7OG         0.0709 
     34 H152      -13.5699   21.7994   21.7823 H         1 7OG         0.0558 
     35 HC22      -12.5239   29.4102   23.4842 H         1 7OG         0.1607 
     36 H241      -19.1891   19.4388   25.5054 H         1 7OG         0.1308 
     37 H242      -20.0597   20.3671   26.7619 H         1 7OG         0.1249 
     38 H243      -20.2872   20.7504   25.0335 H         1 7OG         0.1347 
     39 HC26      -12.2206   26.4683   28.6567 H         1 7OG         0.1333 
     40 HC28      -12.0386   29.7869   25.9143 H         1 7OG         0.1559 
     41 HC27      -11.8069   28.8789   28.2078 H         1 7OG         0.1333 
     42 HC25      -12.8958   24.9538   26.8077 H         1 7OG         0.1327 
     43 HC23      -13.1923   27.8593   21.6505 H         1 7OG         0.1367 
     44 HC19      -13.4390   24.6078   24.4478 H         1 7OG         0.1384 
     45 HC2       -17.7338   20.9532   23.8632 H         1 7OG         0.2065 
     46 H141      -16.6165   21.6180   22.1190 H         1 7OG         0.1139 
     47 H142      -15.4316   20.5889   22.9585 H         1 7OG         0.0815 
     48 H111      -14.0862   23.5506   20.0646 H         1 7OG         0.0905 
     49 H112      -15.8287   23.3692   20.4081 H         1 7OG         0.0790 
@<TRIPOS>BOND
     1    1   24 ar   
     2    1   26 ar   
     3    1   27 ar   
     4    2   24 ar   
     5    2   25 ar   
     6    2   29 1    
     7    3    5 1    
     8    3   19 1    
     9    3   22 1    
    10    3   30 1    
    11    4    5 1    
    12    4   21 am   BACKBONE|DICT|INTERRES
    13    4   23 1    
    14    5   31 1    
    15    5   32 1    
    16    6   22 1    
    17    6   23 1    
    18    6   33 1    
    19    6   34 1    
    20    7    8 ar   
    21    7   14 ar   
    22    7   16 ar   
    23    8    9 ar   
    24    8   12 ar   
    25    9   15 ar   
    26    9   35 1    
    27   10   20 1    
    28   10   36 1    
    29   10   37 1    
    30   10   38 1    
    31   11   13 ar   
    32   11   14 ar   
    33   11   39 1    
    34   12   13 ar   
    35   12   40 1    
    36   13   41 1    
    37   14   42 1    
    38   15   17 ar   
    39   15   43 1    
    40   16   17 ar   
    41   16   44 1    
    42   17   21 1    
    43   18   19 ar   
    44   18   20 ar   
    45   18   45 1    
    46   19   27 ar   
    47   20   26 ar   
    48   21   28 2    
    49   22   46 1    
    50   22   47 1    
    51   23   48 1    
    52   23   49 1    
    53   25   27 ar   
@<TRIPOS>SUBSTRUCTURE
     1 7OG         1 GROUP             0       ****    0 ROOT    
@<TRIPOS>MOLECULE
5U7K_ligand
49   52    1
SMALL
USER_CHARGES


@<TRIPOS>ATOM
      1 N3        -16.0661   23.1174   24.6818 N.pl3     1 7Y1         0.1809 
      2 C6        -17.2641   22.9445   25.4072 C.ar      1 7Y1         0.2909 
      3 C9        -14.0887   22.1869   22.1561 C.ar      1 7Y1         0.3725 
      4 C13       -15.0642   24.1064   26.5752 C.ar      1 7Y1         0.2705 
      5 C20       -18.8497   25.2821   20.9781 C.ar      1 7Y1        -0.1342 
      6 C21       -19.5242   24.8295   19.8312 C.ar      1 7Y1         0.0459 
      7 C16       -17.6675   23.3186   19.3799 C.ar      1 7Y1        -0.0925 
      8 C19       -18.9101   23.8540   19.0307 C.ar      1 7Y1        -0.1879 
      9 C26       -20.6884   26.7278   18.6348 C.3       1 7Y1        -0.0838 
     10 C27       -13.0142   25.5819   22.3881 C.3       1 7Y1        -0.1930 
     11 C25       -12.0573   24.9559   23.4262 C.3       1 7Y1         0.0410 
     12 C23       -12.7594   24.7217   24.7619 C.3       1 7Y1         0.0511 
     13 O18       -13.8984   23.7961   24.4366 O.3       1 7Y1        -0.1000 
     14 C10       -14.9516   23.7058   25.2657 C.ar      1 7Y1        -0.1445 
     15 N12       -16.2245   23.9460   27.3171 N.2       1 7Y1        -0.6131 
     16 C15       -17.2827   23.3835   26.7595 C.ar      1 7Y1         0.2034 
     17 N7        -18.1976   22.3905   24.6277 N.2       1 7Y1        -0.5443 
     18 N4        -17.5837   22.1915   23.3409 N.2       1 7Y1        -0.3664 
     19 C1        -16.3219   22.6357   23.3931 C.ar      1 7Y1         0.5032 
     20 C2        -15.4182   22.6665   22.2603 C.ar      1 7Y1        -0.5908 
     21 N8        -13.5906   22.3444   20.9166 N.2       1 7Y1        -0.6454 
     22 N11       -14.6467   22.9515   20.1973 N.pl3     1 7Y1         0.3694 
     23 C22       -14.4401   23.3026   18.7801 C.3       1 7Y1        -0.4355 
     24 C5        -15.7458   23.1489   20.9818 C.ar      1 7Y1         0.2037 
     25 C14       -17.0086   23.7587   20.5404 C.ar      1 7Y1        -0.1359 
     26 C17       -17.6093   24.7566   21.3307 C.ar      1 7Y1        -0.0368 
     27 C24       -20.8705   25.4194   19.4501 C.3       1 7Y1        -0.0304 
     28 HC9       -13.4946   21.7534   22.9404 H         1 7Y1         0.0690 
     29 HC13      -14.2213   24.5641   27.0715 H         1 7Y1         0.0712 
     30 HC20      -19.3071   26.0440   21.6016 H         1 7Y1         0.1297 
     31 HC16      -17.2270   22.5354   18.7731 H         1 7Y1         0.1172 
     32 HC19      -19.4187   23.4939   18.1416 H         1 7Y1         0.1530 
     33 H261      -21.6612   27.1576   18.3714 H         1 7Y1         0.0370 
     34 H262      -20.1277   27.4626   19.2230 H         1 7Y1         0.0179 
     35 H263      -20.1320   26.5254   17.7132 H         1 7Y1         0.0328 
     36 H271      -12.4952   25.7536   21.4393 H         1 7Y1         0.0595 
     37 H272      -13.8556   24.9094   22.2099 H         1 7Y1         0.0279 
     38 H273      -13.3986   26.5425   22.7519 H         1 7Y1         0.0500 
     39 H251      -11.1989   25.6128   23.6117 H         1 7Y1         0.0316 
     40 H252      -11.6801   23.9973   23.0549 H         1 7Y1         0.0248 
     41 H231      -13.1740   25.6513   25.1685 H         1 7Y1         0.0951 
     42 H232      -12.1187   24.2298   25.5002 H         1 7Y1         0.0680 
     43 HC15      -18.1921   23.2536   27.3322 H         1 7Y1         0.0990 
     44 H221      -15.0802   24.1511   18.5304 H         1 7Y1         0.1633 
     45 H222      -13.3906   23.5752   18.6546 H         1 7Y1         0.1828 
     46 H223      -14.6843   22.4510   18.1371 H         1 7Y1         0.1788 
     47 HC17      -17.1027   25.1112   22.2210 H         1 7Y1         0.1154 
     48 H241      -21.4479   25.6345   20.3573 H         1 7Y1         0.0433 
     49 H242      -21.4376   24.6944   18.8547 H         1 7Y1         0.0347 
@<TRIPOS>BOND
     1    1    2 ar   
     2    1   14 ar   
     3    1   19 ar   
     4    2   16 ar   
     5    2   17 ar   
     6    3   20 ar   
     7    3   21 ar   
     8    3   28 1    
     9    4   14 ar   
    10    4   15 ar   
    11    4   29 1    
    12    5    6 ar   
    13    5   26 ar   
    14    5   30 1    
    15    6    8 ar   
    16    6   27 1    
    17    7    8 ar   
    18    7   25 ar   
    19    7   31 1    
    20    8   32 1    
    21    9   27 1    
    22    9   33 1    
    23    9   34 1    
    24    9   35 1    
    25   10   11 1    
    26   10   36 1    
    27   10   37 1    
    28   10   38 1    
    29   11   12 1    
    30   11   39 1    
    31   11   40 1    
    32   12   13 1    
    33   12   41 1    
    34   12   42 1    
    35   13   14 1    
    36   15   16 ar   
    37   16   43 1    
    38   17   18 ar   
    39   18   19 ar   
    40   19   20 1    
    41   20   24 ar   
    42   21   22 ar   
    43   22   23 1    
    44   22   24 ar   
    45   23   44 1    
    46   23   45 1    
    47   23   46 1    
    48   24   25 1    
    49   25   26 ar   
    50   26   47 1    
    51   27   48 1    
    52   27   49 1    
@<TRIPOS>SUBSTRUCTURE
     1 7Y1         1 GROUP             0       ****    0 ROOT    
@<TRIPOS>MOLECULE
4D08_ligand
60   64    1
SMALL
USER_CHARGES


@<TRIPOS>ATOM
      1 C32       -22.1840   25.1175   19.4448 C.3       1 Q2T        -0.2953 
      2 C31       -21.2809   23.9340   19.0346 C.3       1 Q2T         0.1956 
      3 C30       -19.8017   24.3627   18.9025 C.3       1 Q2T        -0.1304 
      4 C29       -18.9375   23.1688   18.4863 C.3       1 Q2T         0.3157 
      5 O28       -17.5140   23.5661   18.2821 O.3       1 Q2T        -0.4668 
      6 C26       -16.6347   23.4947   19.3373 C.ar      1 Q2T         0.0876 
      7 C25       -15.2637   23.5017   19.0041 C.ar      1 Q2T         0.3354 
      8 N24       -14.2841   23.3692   19.9165 N.ar      1 Q2T        -0.7458 
      9 C23       -14.6281   23.2476   21.2209 C.ar      1 Q2T         0.6990 
     10 C27       -16.9789   23.4049   20.6881 C.ar      1 Q2T         0.1515 
     11 C22       -15.9597   23.3067   21.6531 C.ar      1 Q2T        -0.7004 
     12 C9        -16.3623   23.1172   23.0526 C.ar      1 Q2T         0.7174 
     13 N8        -17.4668   22.4208   23.3563 N.2       1 Q2T        -0.4230 
     14 N7        -17.5350   22.2864   24.7820 N.2       1 Q2T        -0.4775 
     15 C1        -16.4625   22.9072   25.2654 C.ar      1 Q2T         0.3470 
     16 C6        -15.9940   22.9779   26.6250 C.ar      1 Q2T         0.4657 
     17 C14       -16.8461   22.3451   27.6889 C.3       1 Q2T        -0.3686 
     18 N5        -14.8555   23.5579   26.9131 N.2       1 Q2T        -0.6997 
     19 N2        -15.7065   23.4822   24.2311 N.pl3     1 Q2T        -0.1382 
     20 C3        -14.5745   24.2661   24.5463 C.ar      1 Q2T        -0.0913 
     21 C13       -13.9164   25.0886   23.6288 C.ar      1 Q2T        -0.1940 
     22 C12       -12.7471   25.7540   23.9914 C.ar      1 Q2T         0.1562 
     23 C11       -12.2406   25.6146   25.2994 C.ar      1 Q2T        -0.1761 
     24 C10       -12.9455   24.8825   26.2435 C.ar      1 Q2T        -0.2563 
     25 C4        -14.1352   24.2111   25.8973 C.ar      1 Q2T         0.4850 
     26 C15       -12.0034   26.5740   22.9564 C.3       1 Q2T        -0.2939 
     27 N16       -10.7941   25.8393   22.4593 N.3       1 Q2T        -0.3863 
     28 C21       -11.1846   24.5398   21.8241 C.3       1 Q2T        -0.1293 
     29 C20        -9.9388   23.8405   21.2710 C.3       1 Q2T        -0.0528 
     30 O19        -9.2689   24.6820   20.2616 O.3       1 Q2T        -0.4183 
     31 C18        -8.8666   25.9481   20.9038 C.3       1 Q2T         0.0447 
     32 C17       -10.0940   26.6900   21.4440 C.3       1 Q2T         0.0228 
     33 H321      -23.2285   24.7982   19.5356 H         1 Q2T         0.0725 
     34 H322      -21.8627   25.5277   20.4100 H         1 Q2T         0.0735 
     35 H323      -22.1304   25.9174   18.6967 H         1 Q2T         0.0694 
     36 H311      -21.6231   23.5207   18.0769 H         1 Q2T        -0.0292 
     37 H312      -21.3599   23.1338   19.7821 H         1 Q2T        -0.0240 
     38 H301      -19.4503   24.7698   19.8585 H         1 Q2T         0.0433 
     39 H302      -19.7063   25.1493   18.1449 H         1 Q2T         0.0522 
     40 H291      -19.2495   22.7877   17.5105 H         1 Q2T         0.0449 
     41 H292      -18.9915   22.3584   19.2231 H         1 Q2T        -0.0288 
     42 HC25      -14.9898   23.5988   17.9597 H         1 Q2T         0.0719 
     43 HC23      -13.8243   23.0824   21.9245 H         1 Q2T        -0.0981 
     44 HC27      -18.0088   23.4090   21.0155 H         1 Q2T         0.0911 
     45 H141      -16.2600   22.2178   28.6017 H         1 Q2T         0.1405 
     46 H142      -17.7101   22.9914   27.8974 H         1 Q2T         0.1236 
     47 H143      -17.2284   21.3772   27.3462 H         1 Q2T         0.0987 
     48 HC13      -14.3098   25.2132   22.6305 H         1 Q2T         0.1804 
     49 HC11      -11.3149   26.1112   25.5676 H         1 Q2T         0.1792 
     50 HC10      -12.6127   24.8120   27.2720 H         1 Q2T         0.1706 
     51 H151      -11.6585   27.5173   23.3973 H         1 Q2T         0.1893 
     52 H152      -12.6883   26.8141   22.1228 H         1 Q2T         0.1134 
     53 H211      -11.9068   24.6904   21.0001 H         1 Q2T         0.1472 
     54 H212      -11.6411   23.8983   22.5830 H         1 Q2T         0.1873 
     55 H201      -10.2157   22.9117   20.7641 H         1 Q2T         0.1144 
     56 H202       -9.2491   23.6223   22.0989 H         1 Q2T         0.1085 
     57 H181       -8.3692   26.5415   20.1321 H         1 Q2T         0.0861 
     58 H182       -8.1697   25.7480   21.7299 H         1 Q2T         0.0821 
     59 H171       -9.7798   27.6253   21.9201 H         1 Q2T         0.0841 
     60 H172      -10.7641   26.9283   20.5982 H         1 Q2T         0.0764 
@<TRIPOS>BOND
     1    1    2 1    
     2    1   33 1    
     3    1   34 1    
     4    1   35 1    
     5    2    3 1    
     6    2   36 1    
     7    2   37 1    
     8    3    4 1    
     9    3   38 1    
    10    3   39 1    
    11    4    5 1    
    12    4   40 1    
    13    4   41 1    
    14    5    6 1    
    15    6    7 ar   
    16    6   10 ar   
    17    7    8 ar   
    18    7   42 1    
    19    8    9 ar   
    20    9   11 ar   
    21    9   43 1    
    22   10   11 ar   
    23   10   44 1    
    24   11   12 1    
    25   12   13 ar   
    26   12   19 ar   
    27   13   14 ar   
    28   14   15 ar   
    29   15   16 ar   
    30   15   19 ar   
    31   16   17 1    
    32   16   18 ar   
    33   17   45 1    
    34   17   46 1    
    35   17   47 1    
    36   18   25 ar   
    37   19   20 ar   
    38   20   21 ar   
    39   20   25 ar   
    40   21   22 ar   
    41   21   48 1    
    42   22   23 ar   
    43   22   26 1    
    44   23   24 ar   
    45   23   49 1    
    46   24   25 ar   
    47   24   50 1    
    48   26   27 1    
    49   26   51 1    
    50   26   52 1    
    51   27   28 1    
    52   27   32 1    
    53   28   29 1    
    54   28   53 1    
    55   28   54 1    
    56   29   30 1    
    57   29   55 1    
    58   29   56 1    
    59   30   31 1    
    60   31   32 1    
    61   31   57 1    
    62   31   58 1    
    63   32   59 1    
    64   32   60 1    
@<TRIPOS>SUBSTRUCTURE
     1 Q2T         1 GROUP             0       ****    0 ROOT    
@<TRIPOS>MOLECULE
5U7I_ligand
52   55    1
SMALL
USER_CHARGES


@<TRIPOS>ATOM
      1 N3        -15.3590   24.7942   26.0942 N.pl3     1 7XS        -0.5073 
      2 C4        -16.7424   23.3753   23.0719 C.3       1 7XS        -0.4999 
      3 N2        -16.0904   23.5577   27.8692 N.ar      1 7XS        -0.8897 
      4 C7        -17.3365   21.6884   26.3728 C.ar      1 7XS         0.7487 
      5 C6        -16.7324   22.7771   25.6763 C.ar      1 7XS        -0.8770 
      6 C9        -16.0535   23.7228   26.5055 C.ar      1 7XS         1.0344 
      7 C13       -13.4849   28.0703   24.1773 C.ar      1 7XS         0.2781 
      8 C20       -18.7468   19.6908   25.6735 C.3       1 7XS        -0.3289 
      9 C8        -16.7166   22.4795   28.3879 C.ar      1 7XS         0.6779 
     10 N5        -17.7970   21.4386   24.1494 N.2       1 7XS        -0.5861 
     11 C18       -12.8164   27.3113   23.2053 C.ar      1 7XS        -0.1752 
     12 C16       -12.5616   29.2896   21.8087 C.ar      1 7XS         0.3899 
     13 C19       -12.2151   31.2377   20.3581 C.3       1 7XS         0.0084 
     14 C1        -15.6737   21.5691   21.6255 C.3       1 7XS        -0.5736 
     15 C2        -15.4319   22.9043   22.3610 C.3       1 7XS         0.4434 
     16 C3        -14.9515   23.9858   21.3664 C.3       1 7XS        -0.3798 
     17 C5        -17.0733   22.5638   24.2928 C.ar      1 7XS         0.5837 
     18 N1        -17.3443   21.4925   27.7174 N.ar      1 7XS        -0.8868 
     19 C10       -14.6930   25.1953   24.8141 C.3       1 7XS         0.3019 
     20 C11       -13.7703   26.1426   25.6555 C.3       1 7XS         0.3963 
     21 C12       -14.5440   25.7216   26.9474 C.3       1 7XS        -0.1851 
     22 O1        -13.9721   27.5589   25.3906 O.3       1 7XS        -0.4775 
     23 C14       -13.6926   29.4366   23.9511 C.ar      1 7XS        -0.2547 
     24 C15       -13.2360   30.0454   22.7805 C.ar      1 7XS        -0.2433 
     25 C17       -12.3632   27.9190   22.0347 C.ar      1 7XS        -0.3302 
     26 O2        -12.0593   29.7932   20.6108 O.3       1 7XS        -0.4236 
     27 N4        -17.9348   20.8938   25.4509 N.pl3     1 7XS         0.1060 
     28 H4_1      -17.5661   23.2774   22.3527 H         1 7XS         0.1517 
     29 H4_2      -16.6696   24.4312   23.3442 H         1 7XS         0.1349 
     30 H201      -18.4718   18.9365   24.9316 H         1 7XS         0.1655 
     31 H202      -18.5350   19.3277   26.6799 H         1 7XS         0.1372 
     32 H203      -19.8117   19.9300   25.5823 H         1 7XS         0.1562 
     33 HC8       -16.7079   22.3998   29.4688 H         1 7XS         0.0312 
     34 HC18      -12.6352   26.2535   23.3483 H         1 7XS         0.1372 
     35 H191      -11.7441   31.4089   19.3886 H         1 7XS         0.1047 
     36 H192      -13.2734   31.5231   20.3126 H         1 7XS         0.0709 
     37 H193      -11.7095   31.8326   21.1287 H         1 7XS         0.0717 
     38 H1_1      -14.7324   21.1773   21.2216 H         1 7XS         0.1344 
     39 H1_2      -16.1123   20.8275   22.3010 H         1 7XS         0.1401 
     40 H1_3      -16.3706   21.7304   20.7918 H         1 7XS         0.1394 
     41 HC2       -14.6574   22.7489   23.1226 H         1 7XS         0.0002 
     42 H3_1      -14.0498   23.6475   20.8420 H         1 7XS         0.0964 
     43 H3_2      -15.7324   24.1816   20.6204 H         1 7XS         0.1082 
     44 H3_3      -14.7199   24.9264   21.8803 H         1 7XS         0.0506 
     45 H101      -15.3429   25.7530   24.1389 H         1 7XS         0.0289 
     46 H102      -14.1815   24.3719   24.3175 H         1 7XS        -0.0240 
     47 HC11      -12.7130   25.8700   25.6446 H         1 7XS         0.0146 
     48 H121      -13.9518   25.2050   27.7043 H         1 7XS         0.1275 
     49 H122      -15.1284   26.5406   27.3744 H         1 7XS         0.1454 
     50 HC14      -14.2133   30.0134   24.7059 H         1 7XS         0.1795 
     51 HC15      -13.4100   31.1041   22.6405 H         1 7XS         0.1666 
     52 HC17      -11.8437   27.3424   21.2790 H         1 7XS         0.1808 
@<TRIPOS>BOND
     1    1    6 1    
     2    1   19 1    
     3    1   21 1    
     4    2   15 1    
     5    2   17 1    
     6    2   28 1    
     7    2   29 1    
     8    3    6 ar   
     9    3    9 ar   
    10    4    5 ar   
    11    4   18 ar   
    12    4   27 ar   
    13    5    6 ar   
    14    5   17 ar   
    15    7   11 ar   
    16    7   22 1    
    17    7   23 ar   
    18    8   27 1    
    19    8   30 1    
    20    8   31 1    
    21    8   32 1    
    22    9   18 ar   
    23    9   33 1    
    24   10   17 ar   
    25   10   27 ar   
    26   11   25 ar   
    27   11   34 1    
    28   12   24 ar   
    29   12   25 ar   
    30   12   26 1    
    31   13   26 1    
    32   13   35 1    
    33   13   36 1    
    34   13   37 1    
    35   14   15 1    
    36   14   38 1    
    37   14   39 1    
    38   14   40 1    
    39   15   16 1    
    40   15   41 1    
    41   16   42 1    
    42   16   43 1    
    43   16   44 1    
    44   19   20 1    
    45   19   45 1    
    46   19   46 1    
    47   20   21 1    
    48   20   22 1    
    49   20   47 1    
    50   21   48 1    
    51   21   49 1    
    52   23   24 ar   
    53   23   50 1    
    54   24   51 1    
    55   25   52 1    
@<TRIPOS>SUBSTRUCTURE
     1 7XS         1 GROUP             0       ****    0 ROOT    
@<TRIPOS>MOLECULE
5TZ3_ligand
51   55    1
SMALL
USER_CHARGES


@<TRIPOS>ATOM
      1 C5        -16.9314   22.8848   22.1669 C.3       1 7OM        -0.0965 
      2 C6        -16.4030   23.7498   21.0057 C.3       1 7OM        -0.1146 
      3 C7        -14.9699   23.3541   20.5979 C.3       1 7OM        -0.0312 
      4 N12       -15.2312   23.3536   27.8950 N.2       1 7OM        -0.8444 
      5 C13       -14.1671   23.6583   27.0966 C.ar      1 7OM         0.4704 
      6 C15       -17.8237   22.4781   24.9039 C.ar      1 7OM        -0.6235 
      7 C20       -13.5321   26.6435   23.9323 C.ar      1 7OM         0.4557 
      8 C21       -13.6995   26.8415   25.2952 C.ar      1 7OM        -0.5342 
      9 C22       -13.4695   28.1048   25.8928 C.ar      1 7OM         0.2452 
     10 C24       -12.9063   28.9804   23.6701 C.ar      1 7OM        -0.2412 
     11 C26       -13.6345   28.3163   27.2945 C.ar      1 7OM        -0.2552 
     12 C28       -12.9847   30.6460   27.0323 C.ar      1 7OM        -0.1177 
     13 C27       -13.3979   29.5561   27.8491 C.ar      1 7OM        -0.1186 
     14 C29       -12.8192   30.4741   25.6736 C.ar      1 7OM        -0.2415 
     15 C25       -13.1379   27.7440   23.1115 C.ar      1 7OM        -0.2648 
     16 C23       -13.0565   29.2067   25.0679 C.ar      1 7OM         0.1197 
     17 C11       -16.2285   23.0243   27.0287 C.ar      1 7OM         0.9128 
     18 C18       -16.5017   22.8510   24.5914 C.ar      1 7OM         0.3213 
     19 C16       -18.2801   22.4087   26.2288 C.ar      1 7OM         0.6674 
     20 C1        -13.8069   24.9709   22.1054 C.2       1 7OM         0.6519 
     21 C3        -14.5845   22.5981   22.9769 C.3       1 7OM         0.1459 
     22 C2        -14.0371   23.4666   21.8257 C.3       1 7OM        -0.2794 
     23 C19       -19.7138   22.0199   26.5077 C.3       1 7OM        -0.4055 
     24 N14       -14.3689   23.5647   25.7619 N.2       1 7OM        -0.4907 
     25 N17       -17.4919   22.6743   27.3000 N.2       1 7OM        -0.8397 
     26 N10       -15.7290   23.1250   25.7103 N.pl3     1 7OM        -0.0456 
     27 N4        -15.9983   22.9672   23.3358 N.pl3     1 7OM        -0.1311 
     28 N8        -13.7497   25.3412   23.4204 N.am      1 7OM        -0.5759 
     29 O9        -13.6567   25.7667   21.1404 O.2       1 7OM        -0.5838 
     30 H5_1      -17.0220   21.8349   21.8543 H         1 7OM         0.1051 
     31 H5_2      -17.9125   23.2568   22.4681 H         1 7OM         0.1280 
     32 H6_1      -16.4158   24.8020   21.3133 H         1 7OM         0.0691 
     33 H6_2      -17.0880   23.6328   20.1583 H         1 7OM         0.0724 
     34 H7_1      -14.5986   24.0257   19.8201 H         1 7OM         0.0309 
     35 H7_2      -14.9547   22.3236   20.2239 H         1 7OM         0.0653 
     36 HC13      -13.2072   23.9640   27.4821 H         1 7OM         0.1055 
     37 HC15      -18.4969   22.1965   24.1099 H         1 7OM         0.2255 
     38 HC21      -14.0145   26.0180   25.9207 H         1 7OM         0.2128 
     39 HC24      -12.6015   29.8084   23.0371 H         1 7OM         0.1672 
     40 HC26      -13.9492   27.4830   27.9157 H         1 7OM         0.1502 
     41 HC28      -12.8015   31.6130   27.4876 H         1 7OM         0.1302 
     42 HC27      -13.5252   29.7086   28.9151 H         1 7OM         0.1329 
     43 HC29      -12.5055   31.3022   25.0452 H         1 7OM         0.1517 
     44 HC25      -13.0396   27.5727   22.0535 H         1 7OM         0.1696 
     45 H3_1      -13.9624   22.6434   23.8671 H         1 7OM         0.0229 
     46 H3_2      -14.6020   21.5564   22.6260 H         1 7OM         0.0751 
     47 HC2       -13.0497   23.0564   21.5661 H         1 7OM         0.1277 
     48 H191      -19.8019   21.6421   27.5297 H         1 7OM         0.1247 
     49 H192      -20.3611   22.9022   26.4050 H         1 7OM         0.1384 
     50 H193      -20.0597   21.2583   25.8010 H         1 7OM         0.1231 
     51 HN8       -13.9065   24.6292   24.1479 H         1 7OM         0.3164 
@<TRIPOS>BOND
     1    1    2 1    
     2    1   27 1    
     3    1   30 1    
     4    1   31 1    
     5    2    3 1    
     6    2   32 1    
     7    2   33 1    
     8    3   22 1    
     9    3   34 1    
    10    3   35 1    
    11    4    5 ar   
    12    4   17 ar   
    13    5   24 ar   
    14    5   36 1    
    15    6   18 ar   
    16    6   19 ar   
    17    6   37 1    
    18    7    8 ar   
    19    7   15 ar   
    20    7   28 1    
    21    8    9 ar   
    22    8   38 1    
    23    9   11 ar   
    24    9   16 ar   
    25   10   15 ar   
    26   10   16 ar   
    27   10   39 1    
    28   11   13 ar   
    29   11   40 1    
    30   12   13 ar   
    31   12   14 ar   
    32   12   41 1    
    33   13   42 1    
    34   14   16 ar   
    35   14   43 1    
    36   15   44 1    
    37   17   25 ar   
    38   17   26 ar   
    39   18   26 ar   
    40   18   27 1    
    41   19   23 1    
    42   19   25 ar   
    43   20   22 1    
    44   20   28 am   BACKBONE|DICT|INTERRES
    45   20   29 2    
    46   21   22 1    
    47   21   27 1    
    48   21   45 1    
    49   21   46 1    
    50   22   47 1    
    51   23   48 1    
    52   23   49 1    
    53   23   50 1    
    54   24   26 ar   
    55   28   51 1    
@<TRIPOS>SUBSTRUCTURE
     1 7OM         1 GROUP             0       ****    0 ROOT    
@<TRIPOS>MOLECULE
5U7J_ligand
46   48    1
SMALL
USER_CHARGES


@<TRIPOS>ATOM
      1 N3        -16.0025   23.7215   24.9135 N.pl3     1 7XV         0.1454 
      2 C4        -15.7871   23.4426   22.3657 C.3       1 7XV        -0.7592 
      3 N2        -17.8384   22.4721   25.3039 N.2       1 7XV        -0.5197 
      4 C7        -14.9328   24.5310   25.2733 C.ar      1 7XV        -0.1083 
      5 C6        -16.8977   23.2186   25.8848 C.ar      1 7XV         0.2830 
      6 C9        -16.6593   23.5685   27.2425 C.ar      1 7XV         0.2062 
      7 C13       -13.9838   26.8367   21.3439 C.ar      1 7XV        -0.1440 
      8 C8        -14.7745   24.8045   26.6110 C.ar      1 7XV         0.2785 
      9 C18       -12.7019   29.9859   24.8364 C.3       1 7XV        -0.1183 
     10 C16       -14.2387   29.3752   22.4758 C.ar      1 7XV        -0.2898 
     11 C1        -14.8931   21.0429   22.3251 C.3       1 7XV        -0.7819 
     12 C2        -14.5265   22.5359   22.1994 C.3       1 7XV         0.4889 
     13 C3        -13.8777   22.8125   20.8254 C.3       1 7XV        -0.3083 
     14 C5        -16.4555   23.2376   23.6852 C.ar      1 7XV         0.5709 
     15 N1        -17.5387   22.4893   23.8861 N.2       1 7XV        -0.4394 
     16 N4        -15.6373   24.3286   27.5880 N.2       1 7XV        -0.6126 
     17 O1        -14.1803   24.9396   24.2276 O.3       1 7XV        -0.1755 
     18 C10       -12.9102   25.6801   24.5269 C.3       1 7XV         0.0830 
     19 C11       -12.3534   26.1351   23.1766 C.3       1 7XV        -0.2226 
     20 C12       -13.2676   27.1400   22.5032 C.ar      1 7XV        -0.0483 
     21 C14       -14.8304   27.7795   20.7440 C.ar      1 7XV        -0.2044 
     22 C15       -14.9553   29.0471   21.3162 C.ar      1 7XV        -0.1073 
     23 C17       -13.3948   28.4284   23.0675 C.ar      1 7XV         0.3362 
     24 O2        -12.6389   28.6462   24.2188 O.3       1 7XV        -0.3159 
     25 H9        -16.5151   23.1867   21.5882 H         1 7XV         0.2133 
     26 H8        -15.4915   24.4889   22.2661 H         1 7XV         0.2126 
     27 H11       -17.3376   23.1953   27.9989 H         1 7XV         0.0964 
     28 H16       -13.8706   25.8555   20.8987 H         1 7XV         0.1547 
     29 H10       -13.9528   25.4188   26.9448 H         1 7XV         0.0608 
     30 H21       -12.0276   29.9339   25.6920 H         1 7XV         0.1298 
     31 H20       -13.7193   30.2173   25.1724 H         1 7XV         0.1044 
     32 H22       -12.3618   30.7565   24.1347 H         1 7XV         0.1012 
     33 H19       -14.3449   30.3644   22.9014 H         1 7XV         0.1649 
     34 H1        -13.9912   20.4251   22.2364 H         1 7XV         0.1903 
     35 H3        -15.5883   20.7608   21.5231 H         1 7XV         0.1895 
     36 H2        -15.3711   20.8256   23.2872 H         1 7XV         0.2138 
     37 H4        -13.8174   22.8117   22.9862 H         1 7XV         0.0070 
     38 H6        -13.5922   23.8656   20.7332 H         1 7XV         0.0442 
     39 H5        -14.5802   22.5700   20.0168 H         1 7XV         0.1113 
     40 H7        -12.9774   22.1999   20.6996 H         1 7XV         0.0754 
     41 H12       -13.1329   26.5484   25.1485 H         1 7XV         0.0949 
     42 H13       -12.2333   24.9936   25.0453 H         1 7XV         0.0940 
     43 H14       -12.2021   25.2609   22.5362 H         1 7XV         0.1147 
     44 H15       -11.3805   26.5999   23.3803 H         1 7XV         0.1054 
     45 H17       -15.3780   27.5240   19.8436 H         1 7XV         0.1447 
     46 H18       -15.6065   29.7880   20.8650 H         1 7XV         0.1401 
@<TRIPOS>BOND
     1    1    4 ar   
     2    1    5 ar   
     3    1   14 ar   
     4    2   12 1    
     5    2   14 1    
     6    2   25 1    
     7    2   26 1    
     8    3    5 ar   
     9    3   15 ar   
    10    4    8 ar   
    11    4   17 1    
    12    5    6 ar   
    13    6   16 ar   
    14    6   27 1    
    15    7   20 ar   
    16    7   21 ar   
    17    7   28 1    
    18    8   16 ar   
    19    8   29 1    
    20    9   24 1    
    21    9   30 1    
    22    9   31 1    
    23    9   32 1    
    24   10   22 ar   
    25   10   23 ar   
    26   10   33 1    
    27   11   12 1    
    28   11   34 1    
    29   11   35 1    
    30   11   36 1    
    31   12   13 1    
    32   12   37 1    
    33   13   38 1    
    34   13   39 1    
    35   13   40 1    
    36   14   15 ar   
    37   17   18 1    
    38   18   19 1    
    39   18   41 1    
    40   18   42 1    
    41   19   20 1    
    42   19   43 1    
    43   19   44 1    
    44   20   23 ar   
    45   21   22 ar   
    46   21   45 1    
    47   22   46 1    
    48   23   24 1    
@<TRIPOS>SUBSTRUCTURE
     1 7XV         1 GROUP             0       ****    0 ROOT    
@<TRIPOS>MOLECULE
5TZW_ligand
43   46    1
SMALL
USER_CHARGES


@<TRIPOS>ATOM
      1 N3        -18.1686   21.9353   27.0448 N.2       1 7P4        -0.8141 
      2 C4        -17.0801   22.7275   27.1186 C.ar      1 7P4         0.9072 
      3 C6        -16.5486   22.4549   24.7477 C.ar      1 7P4         0.0077 
      4 C8        -15.4357   24.0101   27.6566 C.ar      1 7P4         0.4423 
      5 C10       -19.6638   20.5063   25.7355 C.3       1 7P4        -0.4195 
      6 C13       -14.7725   22.2521   21.3527 C.3       1 7P4         0.4678 
      7 C17       -13.7346   25.3778   22.0320 C.2       1 7P4         0.5179 
      8 C20       -13.4806   25.5551   24.5722 C.ar      1 7P4        -0.1377 
      9 C21       -13.1128   26.2893   25.6849 C.ar      1 7P4         0.1790 
     10 C22       -12.3875   28.1004   24.2676 C.ar      1 7P4        -0.2406 
     11 C26       -12.5715   27.5667   25.5395 C.ar      1 7P4         0.2198 
     12 C23       -12.7701   27.3698   23.1416 C.ar      1 7P4        -0.1054 
     13 C18       -13.3573   26.1020   23.2909 C.ar      1 7P4        -0.0948 
     14 C1        -17.6647   21.6507   24.6835 C.ar      1 7P4        -0.5251 
     15 C2        -18.4554   21.3998   25.8472 C.ar      1 7P4         0.6986 
     16 C12       -15.7597   21.8255   22.4218 C.3       1 7P4        -0.4862 
     17 C16       -15.8217   24.2681   23.1085 C.3       1 7P4        -0.3001 
     18 C14       -15.0058   23.6727   20.8559 C.3       1 7P4        -0.2788 
     19 C11       -15.6124   22.7918   23.6161 C.3       1 7P4         0.5281 
     20 N7        -16.5462   23.3862   28.1757 N.2       1 7P4        -0.8369 
     21 N9        -15.1948   23.8080   26.3410 N.2       1 7P4        -0.5359 
     22 N5        -16.2798   22.9770   25.9850 N.pl3     1 7P4         0.0862 
     23 N15       -14.8413   24.5532   22.0276 N.am      1 7P4        -0.1139 
     24 O19       -13.0669   25.5669   20.9810 O.2       1 7P4        -0.5906 
     25 F27       -12.2142   28.2775   26.6519 F         1 7P4        -0.1600 
     26 F28       -13.2810   25.7523   26.9440 F         1 7P4        -0.1688 
     27 F24       -13.4766   22.2085   21.9143 F         1 7P4        -0.2230 
     28 F25       -14.8110   21.3647   20.2759 F         1 7P4        -0.2104 
     29 HC8       -14.7826   24.6339   28.2383 H         1 7P4         0.1208 
     30 H101      -19.3972   19.5667   25.2337 H         1 7P4         0.1321 
     31 H102      -20.0641   20.2952   26.7300 H         1 7P4         0.1305 
     32 H103      -20.4362   21.0029   25.1325 H         1 7P4         0.1389 
     33 HC20      -13.8633   24.5684   24.7651 H         1 7P4         0.1245 
     34 HC22      -11.9472   29.0861   24.1776 H         1 7P4         0.1906 
     35 HC23      -12.6233   27.7680   22.1456 H         1 7P4         0.1544 
     36 HC1       -17.9486   21.1872   23.7497 H         1 7P4         0.2250 
     37 H121      -15.5326   20.7983   22.7261 H         1 7P4         0.1637 
     38 H122      -16.7652   21.8693   21.9917 H         1 7P4         0.1800 
     39 H161      -15.7249   24.9870   23.9188 H         1 7P4         0.1399 
     40 H162      -16.8271   24.3469   22.6771 H         1 7P4         0.1546 
     41 H141      -16.0105   23.7580   20.4335 H         1 7P4         0.1655 
     42 H142      -14.2509   23.9487   20.1193 H         1 7P4         0.1660 
     43 HC11      -14.5831   22.7054   23.9825 H         1 7P4         0.0004 
@<TRIPOS>BOND
     1    1    2 ar   
     2    1   15 ar   
     3    2   20 ar   
     4    2   22 ar   
     5    3   14 ar   
     6    3   19 1    
     7    3   22 ar   
     8    4   20 ar   
     9    4   21 ar   
    10    4   29 1    
    11    5   15 1    
    12    5   30 1    
    13    5   31 1    
    14    5   32 1    
    15    6   16 1    
    16    6   18 1    
    17    6   27 1    
    18    6   28 1    
    19    7   13 1    
    20    7   23 am   BACKBONE|DICT|INTERRES
    21    7   24 2    
    22    8    9 ar   
    23    8   13 ar   
    24    8   33 1    
    25    9   11 ar   
    26    9   26 1    
    27   10   11 ar   
    28   10   12 ar   
    29   10   34 1    
    30   11   25 1    
    31   12   13 ar   
    32   12   35 1    
    33   14   15 ar   
    34   14   36 1    
    35   16   19 1    
    36   16   37 1    
    37   16   38 1    
    38   17   19 1    
    39   17   23 1    
    40   17   39 1    
    41   17   40 1    
    42   18   23 1    
    43   18   41 1    
    44   18   42 1    
    45   19   43 1    
    46   21   22 ar   
@<TRIPOS>SUBSTRUCTURE
     1 7P4         1 GROUP             0       ****    0 ROOT    
@<TRIPOS>MOLECULE
5u7d_ligand
67   70    1
SMALL
USER_CHARGES


@<TRIPOS>ATOM
      1 CAB       -11.0080   25.1010   22.5161 C.3       1 19F         0.1065 
      2 OAW       -11.5025   26.4701   22.7665 O.3       1 19F        -0.4286 
      3 CBC       -12.2726   26.7033   23.9000 C.ar      1 19F         0.2567 
      4 CAN       -12.5779   25.7704   24.8866 C.ar      1 19F        -0.3536 
      5 CBB       -12.7614   28.0349   24.0210 C.ar      1 19F         0.2098 
      6 OAV       -12.3998   28.8989   22.9908 O.3       1 19F        -0.3828 
      7 CAA       -12.8548   30.2959   23.0950 C.3       1 19F         0.0221 
      8 CAM       -13.5372   28.3761   25.1246 C.ar      1 19F        -0.2084 
      9 CAL       -13.8376   27.4247   26.1140 C.ar      1 19F        -0.3053 
     10 CAY       -13.3606   26.1207   26.0067 C.ar      1 19F         0.2054 
     11 CAR       -13.7246   25.0808   27.0607 C.3       1 19F        -0.4504 
     12 CBA       -14.8352   24.1535   26.5853 C.ar      1 19F         0.7326 
     13 NAU       -15.6691   23.5898   27.5426 N.pl3     1 19F        -0.6598 
     14 CBE       -16.7363   22.7065   27.2505 C.ar      1 19F         0.8071 
     15 OAE       -17.4626   22.2278   28.1475 O.2       1 19F        -0.6120 
     16 NAT       -14.9119   23.9290   25.3025 N.2       1 19F        -0.5630 
     17 NBI       -15.9696   23.0610   24.9366 N.pl3     1 19F         0.3217 
     18 CBF       -16.8628   22.4627   25.8371 C.ar      1 19F        -0.5726 
     19 CAZ       -17.7399   21.7267   25.0607 C.ar      1 19F         0.6248 
     20 CAC       -18.8850   20.9008   25.5607 C.3       1 19F        -0.5468 
     21 NAS       -17.3964   21.8726   23.7175 N.2       1 19F        -0.7940 
     22 CBD       -16.3157   22.6912   23.6621 C.ar      1 19F         0.4156 
     23 CBH       -15.5850   23.1281   22.4278 C.3       1 19F        -0.2824 
     24 CBG       -14.1251   22.5777   22.4214 C.3       1 19F         0.5037 
     25 CAD       -14.0787   21.0438   22.4182 C.3       1 19F        -0.4983 
     26 OAF       -13.3818   23.1158   21.2667 O.3       1 19F        -0.7108 
     27 CAQ       -15.5658   24.6715   22.2591 C.3       1 19F         0.0649 
     28 CAO       -16.9110   25.2366   21.7677 C.3       1 19F         0.0081 
     29 CAP       -16.8454   26.7805   21.6074 C.3       1 19F        -0.3893 
     30 CAX       -18.0876   27.3214   20.9212 C.ar      1 19F         0.2447 
     31 CAJ       -19.2530   27.5986   21.6545 C.ar      1 19F        -0.2507 
     32 CAH       -20.4122   28.0474   21.0110 C.ar      1 19F        -0.1068 
     33 CAG       -20.4215   28.2239   19.6211 C.ar      1 19F        -0.1523 
     34 CAI       -19.2646   27.9483   18.8808 C.ar      1 19F        -0.1213 
     35 CAK       -18.1079   27.4992   19.5279 C.ar      1 19F        -0.2220 
     36 H1        -10.5159   24.6809   23.3999 H         1 19F         0.0466 
     37 H2        -11.8190   24.4478   22.1793 H         1 19F         0.0473 
     38 H3        -10.2739   25.2160   21.7163 H         1 19F         0.0740 
     39 H4        -12.2386   24.7474   24.7861 H         1 19F         0.2085 
     40 H5        -12.4532   30.7906   22.2101 H         1 19F         0.0976 
     41 H6        -13.9493   30.3596   23.0933 H         1 19F         0.0622 
     42 H7        -12.4628   30.7753   24.0006 H         1 19F         0.0703 
     43 H8        -13.9196   29.3826   25.2304 H         1 19F         0.1668 
     44 H9        -14.4509   27.7130   26.9608 H         1 19F         0.1710 
     45 H10       -14.0577   25.5791   27.9791 H         1 19F         0.1762 
     46 H11       -12.8547   24.4569   27.3142 H         1 19F         0.1603 
     47 H12       -15.5292   23.8244   28.5317 H         1 19F         0.3939 
     48 H13       -18.7599   19.8479   25.2770 H         1 19F         0.1605 
     49 H14       -18.9162   20.9817   26.6505 H         1 19F         0.1500 
     50 H15       -19.8348   21.2550   25.1391 H         1 19F         0.1600 
     51 H16       -16.1147   22.6758   21.5792 H         1 19F         0.0981 
     52 H17       -13.6067   22.9877   23.2904 H         1 19F        -0.0143 
     53 H18       -14.5946   20.6597   21.5276 H         1 19F         0.1338 
     54 H19       -13.0376   20.7069   22.3966 H         1 19F         0.1234 
     55 H20       -14.5695   20.6379   23.3094 H         1 19F         0.1259 
     56 H21       -13.7795   22.7322   20.4291 H         1 19F         0.4448 
     57 H22       -15.2684   25.1287   23.2072 H         1 19F         0.0200 
     58 H23       -14.7872   24.8913   21.5223 H         1 19F         0.0535 
     59 H24       -17.7182   24.9767   22.4638 H         1 19F         0.0315 
     60 H25       -17.1587   24.7896   20.7963 H         1 19F         0.0251 
     61 H26       -16.7233   27.2375   22.5970 H         1 19F         0.1230 
     62 H27       -15.9579   27.0307   21.0126 H         1 19F         0.1086 
     63 H28       -19.2479   27.4655   22.7325 H         1 19F         0.1496 
     64 H29       -21.3039   28.2616   21.5909 H         1 19F         0.1238 
     65 H30       -21.3181   28.5748   19.1214 H         1 19F         0.1266 
     66 H31       -19.2625   28.0855   17.8044 H         1 19F         0.1266 
     67 H32       -17.2111   27.2894   18.9520 H         1 19F         0.1420 
@<TRIPOS>BOND
     1    1    2 1    
     2    1   36 1    
     3    1   37 1    
     4    1   38 1    
     5    2    3 1    
     6    3    4 ar   
     7    3    5 ar   
     8    4   10 ar   
     9    4   39 1    
    10    5    6 1    
    11    5    8 ar   
    12    6    7 1    
    13    7   40 1    
    14    7   41 1    
    15    7   42 1    
    16    8    9 ar   
    17    8   43 1    
    18    9   10 ar   
    19    9   44 1    
    20   10   11 1    
    21   11   12 1    
    22   11   45 1    
    23   11   46 1    
    24   12   13 ar   
    25   12   16 ar   
    26   13   14 ar   
    27   13   47 1    
    28   14   15 2    
    29   14   18 ar   
    30   16   17 ar   
    31   17   18 ar   
    32   17   22 ar   
    33   18   19 ar   
    34   19   20 1    
    35   19   21 ar   
    36   20   48 1    
    37   20   49 1    
    38   20   50 1    
    39   21   22 ar   
    40   22   23 1    
    41   23   24 1    
    42   23   27 1    
    43   23   51 1    
    44   24   25 1    
    45   24   26 1    
    46   24   52 1    
    47   25   53 1    
    48   25   54 1    
    49   25   55 1    
    50   26   56 1    
    51   27   28 1    
    52   27   57 1    
    53   27   58 1    
    54   28   29 1    
    55   28   59 1    
    56   28   60 1    
    57   29   30 1    
    58   29   61 1    
    59   29   62 1    
    60   30   31 ar   
    61   30   35 ar   
    62   31   32 ar   
    63   31   63 1    
    64   32   33 ar   
    65   32   64 1    
    66   33   34 ar   
    67   33   65 1    
    68   34   35 ar   
    69   34   66 1    
    70   35   67 1    
@<TRIPOS>SUBSTRUCTURE
     1 19F         1 GROUP             0       ****    0 ROOT    
@<TRIPOS>MOLECULE
4C1I_ligand
43   44    1
SMALL
USER_CHARGES


@<TRIPOS>ATOM
      1 C1        -16.1994   23.8303   26.5225 C.ar      1 EH9         0.7462 
      2 C2        -16.1863   23.1427   25.2858 C.ar      1 EH9         0.0670 
      3 C3        -15.3095   23.6160   24.2912 C.ar      1 EH9         0.3414 
      4 C5        -14.5758   25.2694   25.6200 C.ar      1 EH9         0.6104 
      5 C14       -16.4476   21.8369   23.5748 C.ar      1 EH9         0.3290 
      6 N4        -14.4762   24.6771   24.4093 N.ar      1 EH9        -0.7851 
      7 N6        -15.3747   24.9150   26.6599 N.ar      1 EH9        -0.8595 
      8 N13       -15.4800   22.7735   23.2034 N.pl3     1 EH9        -0.0194 
      9 N15       -16.8950   22.0224   24.8194 N.2       1 EH9        -0.7406 
     10 C34       -19.4410   28.5122   19.3311 C.3       1 EH9        -0.3360 
     11 N24       -16.9762   23.4665   27.5598 N.pl3     1 EH9        -0.9203 
     12 C31       -18.6283   27.2361   19.0237 C.3       1 EH9         0.2291 
     13 C30       -17.8584   26.7162   20.2586 C.3       1 EH9        -0.0104 
     14 C28       -17.0973   25.4099   19.9524 C.3       1 EH9        -0.1497 
     15 C26       -16.3188   24.8449   21.1622 C.3       1 EH9         0.2547 
     16 C21       -15.6998   23.4806   20.8058 C.3       1 EH9        -0.3980 
     17 O38       -15.4627   20.6790   21.1225 O.3       1 EH9        -0.6850 
     18 C40       -13.3590   20.8192   22.4656 C.3       1 EH9        -0.4198 
     19 C20       -14.7841   22.8751   21.8902 C.3       1 EH9         0.1653 
     20 C36       -14.2641   21.4934   21.4287 C.3       1 EH9         0.1854 
     21 HC5       -13.9418   26.1300   25.7833 H         1 EH9         0.0423 
     22 HC14      -16.7209   21.0621   22.8817 H         1 EH9         0.1128 
     23 H341      -19.9783   28.8626   18.4421 H         1 EH9         0.0751 
     24 H342      -20.1754   28.3153   20.1215 H         1 EH9         0.0744 
     25 H343      -18.7781   29.3161   19.6734 H         1 EH9         0.0748 
     26 H241      -16.9450   23.9981   28.4276 H         1 EH9         0.4532 
     27 H242      -17.6018   22.6653   27.4999 H         1 EH9         0.4445 
     28 H311      -17.9135   27.4373   18.2150 H         1 EH9        -0.0375 
     29 H312      -19.3037   26.4469   18.6675 H         1 EH9        -0.0407 
     30 H301      -18.5677   26.5393   21.0790 H         1 EH9         0.0041 
     31 H302      -17.1508   27.4853   20.5978 H         1 EH9        -0.0044 
     32 H281      -16.3957   25.5858   19.1247 H         1 EH9         0.0300 
     33 H282      -17.8173   24.6534   19.6086 H         1 EH9         0.0344 
     34 H261      -16.9999   24.7272   22.0141 H         1 EH9        -0.0461 
     35 H262      -15.5322   25.5488   21.4645 H         1 EH9        -0.0173 
     36 H211      -15.0863   23.5896   19.9003 H         1 EH9         0.1106 
     37 H212      -16.4870   22.7532   20.5853 H         1 EH9         0.1075 
     38 HO38      -15.1828   19.7289   21.0295 H         1 EH9         0.4671 
     39 H401      -12.5025   21.4669   22.6861 H         1 EH9         0.1235 
     40 H402      -13.9145   20.6322   23.3883 H         1 EH9         0.0953 
     41 H403      -12.9823   19.8664   22.0748 H         1 EH9         0.1358 
     42 HC20      -13.9244   23.5309   22.0641 H         1 EH9         0.0791 
     43 HC36      -13.6885   21.6740   20.5085 H         1 EH9         0.0769 
@<TRIPOS>BOND
     1    1    2 ar   
     2    1    7 ar   
     3    1   11 1    
     4    2    3 ar   
     5    2    9 ar   
     6    3    6 ar   
     7    3    8 ar   
     8    4    6 ar   
     9    4    7 ar   
    10    4   21 1    
    11    5    8 ar   
    12    5    9 ar   
    13    5   22 1    
    14    8   19 1    
    15   10   12 1    
    16   10   23 1    
    17   10   24 1    
    18   10   25 1    
    19   11   26 1    
    20   11   27 1    
    21   12   13 1    
    22   12   28 1    
    23   12   29 1    
    24   13   14 1    
    25   13   30 1    
    26   13   31 1    
    27   14   15 1    
    28   14   32 1    
    29   14   33 1    
    30   15   16 1    
    31   15   34 1    
    32   15   35 1    
    33   16   19 1    
    34   16   36 1    
    35   16   37 1    
    36   17   20 1    
    37   17   38 1    
    38   18   20 1    
    39   18   39 1    
    40   18   40 1    
    41   18   41 1    
    42   19   20 1    
    43   19   42 1    
    44   20   43 1    
@<TRIPOS>SUBSTRUCTURE
     1 EH9         1 GROUP             0       ****    0 ROOT    
